ligandXIAP.pdb
     RDKit          3D

 47 49  0  0  1  0  0  0  0  0999 V2000
  -15.3111  -21.6190   -0.2520 C   0  0  0  0  0  0  0  0  0  0  0  0
  -15.8331  -20.3085   -0.8116 C   0  0  2  0  0  0  0  0  0  0  0  0
  -15.7472  -20.2169   -2.3385 C   0  0  0  0  0  0  0  0  0  0  0  0
  -16.1791  -18.8891   -2.7595 N   0  0  0  0  0  0  0  0  0  0  0  0
  -16.5518  -18.7929   -4.1467 C   0  0  0  0  0  0  0  0  0  0  0  0
  -15.4862  -19.0965   -5.2154 C   0  0  0  0  0  0  0  0  0  0  0  0
  -14.3598  -19.4858   -4.9488 O   0  0  0  0  0  0  0  0  0  0  0  0
  -15.9105  -18.9009   -6.5123 N   0  0  0  0  0  0  0  0  0  0  0  0
  -17.2748  -18.5407   -6.9380 C   0  0  0  0  0  0  0  0  0  0  0  0
  -17.2904  -18.7637   -8.4653 C   0  0  0  0  0  0  0  0  0  0  0  0
  -15.8358  -18.9666   -8.8126 C   0  0  0  0  0  0  0  0  0  0  0  0
  -15.1983  -19.0715  -10.0359 C   0  0  0  0  0  0  0  0  0  0  0  0
  -13.8349  -19.3649  -10.0773 C   0  0  0  0  0  0  0  0  0  0  0  0
  -13.1406  -19.5561   -8.8824 C   0  0  0  0  0  0  0  0  0  0  0  0
  -13.7424  -19.3966   -7.6450 C   0  0  0  0  0  0  0  0  0  0  0  0
  -15.0930  -19.0904   -7.6355 C   0  0  0  0  0  0  0  0  0  0  0  0
  -15.2443  -17.8761   -2.2831 C   0  0  0  0  0  0  0  0  0  0  0  0
  -15.2825  -17.8473   -0.7482 C   0  0  0  0  0  0  0  0  0  0  0  0
  -15.0344  -19.1851   -0.1761 N   0  0  0  0  0  0  0  0  0  0  0  0
  -15.9268  -22.4671   -0.5612 H   0  0  0  0  0  0  0  0  0  0  0  0
  -15.3135  -21.5834    0.8436 H   0  0  0  0  0  0  0  0  0  0  0  0
  -14.2834  -21.8013   -0.5900 H   0  0  0  0  0  0  0  0  0  0  0  0
  -16.8777  -20.1646   -0.5256 H   0  0  0  0  0  0  0  0  0  0  0  0
  -16.4120  -20.9648   -2.7860 H   0  0  0  0  0  0  0  0  0  0  0  0
  -14.7180  -20.4356   -2.6770 H   0  0  0  0  0  0  0  0  0  0  0  0
  -16.9441  -17.7832   -4.3364 H   0  0  0  0  0  0  0  0  0  0  0  0
  -17.3914  -19.4838   -4.3157 H   0  0  0  0  0  0  0  0  0  0  0  0
  -17.5085  -17.5000   -6.6863 H   0  0  0  0  0  0  0  0  0  0  0  0
  -17.9941  -19.1828   -6.4351 H   0  0  0  0  0  0  0  0  0  0  0  0
  -17.7394  -17.9172   -8.9897 H   0  0  0  0  0  0  0  0  0  0  0  0
  -17.8804  -19.6530   -8.7114 H   0  0  0  0  0  0  0  0  0  0  0  0
  -15.7546  -18.9611  -10.9613 H   0  0  0  0  0  0  0  0  0  0  0  0
  -13.3078  -19.4687  -11.0191 H   0  0  0  0  0  0  0  0  0  0  0  0
  -13.2129  -19.5380   -6.7128 H   0  0  0  0  0  0  0  0  0  0  0  0
  -15.5547  -16.8955   -2.6626 H   0  0  0  0  0  0  0  0  0  0  0  0
  -14.2158  -18.0613   -2.6448 H   0  0  0  0  0  0  0  0  0  0  0  0
  -16.2737  -17.5072   -0.4430 H   0  0  0  0  0  0  0  0  0  0  0  0
  -14.5388  -17.1478   -0.3662 H   0  0  0  0  0  0  0  0  0  0  0  0
  -15.2613  -19.2018    0.8400 H   0  0  0  0  0  0  0  0  0  0  0  0
  -14.0143  -19.4121   -0.3053 H   0  0  0  0  0  0  0  0  0  0  0  0
  -11.5185  -20.2889   -8.9214 S   0  0  0  0  0  6  0  0  0  0  0  0
  -10.6264  -19.4322   -7.6406 C   0  0  0  0  0  0  0  0  0  0  0  0
  -10.8706  -19.9624  -10.1899 O   0  0  0  0  0  0  0  0  0  0  0  0
  -11.6403  -21.6899   -8.5325 O   0  0  0  0  0  0  0  0  0  0  0  0
  -10.8134  -18.3596   -7.7277 H   0  0  0  0  0  0  0  0  0  0  0  0
   -9.5662  -19.6394   -7.7995 H   0  0  0  0  0  0  0  0  0  0  0  0
  -10.9312  -19.7978   -6.6571 H   0  0  0  0  0  0  0  0  0  0  0  0
  1  2  1  0
  1 20  1  0
  1 21  1  0
  1 22  1  0
  2  3  1  0
  2 19  1  0
  2 23  1  6
  3  4  1  0
  3 24  1  0
  3 25  1  0
  4  5  1  0
  4 17  1  0
  5  6  1  0
  5 26  1  0
  5 27  1  0
  6  7  2  0
  6  8  1  0
  8  9  1  0
  8 16  1  0
  9 28  1  0
  9 29  1  0
  9 10  1  0
 10 11  1  0
 10 30  1  0
 10 31  1  0
 11 12  1  0
 11 16  2  0
 12 13  2  0
 12 32  1  0
 13 14  1  0
 13 33  1  0
 14 15  2  0
 15 16  1  0
 15 34  1  0
 17 18  1  0
 17 35  1  0
 17 36  1  0
 18 19  1  0
 18 37  1  0
 18 38  1  0
 19 39  1  0
 19 40  1  0
 41 42  1  0
 41 43  2  0
 41 44  2  0
 42 45  1  0
 42 46  1  0
 42 47  1  0
 14 41  1  0
M  CHG  1  19   1
M  END
>  <attachment_point>  (1) 
33

>  <energies>  (1) 
[-872616.2359802837]

>  <index>  (1) 
7

>  <Smiles>  (1) 
[H]c1c([H])c(S(=O)(=O)C([H])([H])[H])c([H])c2c1C([H])([H])C([H])([H])N2C(=O)C([H])([H])N1C([H])([H])C([H])([H])[N+]([H])([H])[C@]([H])(C([H])([H])[H])C1([H])[H]

>  <score>  (1) 
<NA>

>  <h>  (1) 
33

>  <Training>  (1) 
False

>  <Success>  (1) 
nan

>  <enamine_searched>  (1) 
False

>  <enamine_id>  (1) 
nan

$$$$
