ligandXIAP.pdb
     RDKit          3D

 43 45  0  0  1  0  0  0  0  0999 V2000
  -15.3386  -21.8393    0.0254 C   0  0  0  0  0  0  0  0  0  0  0  0
  -15.8007  -20.5161   -0.5584 C   0  0  2  0  0  0  0  0  0  0  0  0
  -15.8046  -20.4950   -2.0903 C   0  0  0  0  0  0  0  0  0  0  0  0
  -16.1213  -19.1520   -2.5741 N   0  0  0  0  0  0  0  0  0  0  0  0
  -16.4097  -19.1036   -3.9896 C   0  0  0  0  0  0  0  0  0  0  0  0
  -15.2676  -19.4647   -4.9569 C   0  0  0  0  0  0  0  0  0  0  0  0
  -14.1800  -19.8533   -4.5688 O   0  0  0  0  0  0  0  0  0  0  0  0
  -15.5340  -19.3322   -6.2985 N   0  0  0  0  0  0  0  0  0  0  0  0
  -16.8333  -18.9823   -6.8973 C   0  0  0  0  0  0  0  0  0  0  0  0
  -16.6652  -19.3186   -8.3924 C   0  0  0  0  0  0  0  0  0  0  0  0
  -15.1665  -19.4083   -8.5638 C   0  0  0  0  0  0  0  0  0  0  0  0
  -14.3780  -19.4518   -9.6989 C   0  0  0  0  0  0  0  0  0  0  0  0
  -12.9919  -19.5100   -9.5772 C   0  0  0  0  0  0  0  0  0  0  0  0
  -12.3785  -19.5208   -8.3166 C   0  0  0  0  0  0  0  0  0  0  0  0
  -13.1670  -19.5194   -7.1637 C   0  0  0  0  0  0  0  0  0  0  0  0
  -14.5502  -19.4456   -7.3104 C   0  0  0  0  0  0  0  0  0  0  0  0
  -15.0992  -18.1959   -2.1474 C   0  0  0  0  0  0  0  0  0  0  0  0
  -15.0697  -18.1159   -0.6140 C   0  0  0  0  0  0  0  0  0  0  0  0
  -14.8874  -19.4434   -0.0048 N   0  0  0  0  0  0  0  0  0  0  0  0
  -15.4129  -21.8077    1.1181 H   0  0  0  0  0  0  0  0  0  0  0  0
  -14.2918  -22.0211   -0.2490 H   0  0  0  0  0  0  0  0  0  0  0  0
  -15.9347  -22.6840   -0.3289 H   0  0  0  0  0  0  0  0  0  0  0  0
  -16.8135  -20.2808   -0.2229 H   0  0  0  0  0  0  0  0  0  0  0  0
  -16.5806  -21.1848   -2.4436 H   0  0  0  0  0  0  0  0  0  0  0  0
  -14.8370  -20.8457   -2.4855 H   0  0  0  0  0  0  0  0  0  0  0  0
  -16.7586  -18.0937   -4.2428 H   0  0  0  0  0  0  0  0  0  0  0  0
  -17.2587  -19.7709   -4.1915 H   0  0  0  0  0  0  0  0  0  0  0  0
  -17.0415  -17.9127   -6.7629 H   0  0  0  0  0  0  0  0  0  0  0  0
  -17.6465  -19.5421   -6.4277 H   0  0  0  0  0  0  0  0  0  0  0  0
  -17.1259  -18.5472   -9.0139 H   0  0  0  0  0  0  0  0  0  0  0  0
  -17.1507  -20.2716   -8.6313 H   0  0  0  0  0  0  0  0  0  0  0  0
  -14.8360  -19.4178  -10.6869 H   0  0  0  0  0  0  0  0  0  0  0  0
  -12.3661  -19.5638  -10.4618 H   0  0  0  0  0  0  0  0  0  0  0  0
  -12.7037  -19.5616   -6.1832 H   0  0  0  0  0  0  0  0  0  0  0  0
  -15.3514  -17.2076   -2.5497 H   0  0  0  0  0  0  0  0  0  0  0  0
  -14.1088  -18.4677   -2.5454 H   0  0  0  0  0  0  0  0  0  0  0  0
  -16.0179  -17.6982   -0.2756 H   0  0  0  0  0  0  0  0  0  0  0  0
  -14.2626  -17.4588   -0.2896 H   0  0  0  0  0  0  0  0  0  0  0  0
  -15.0732  -19.4054    1.0208 H   0  0  0  0  0  0  0  0  0  0  0  0
  -13.8923  -19.7356   -0.1783 H   0  0  0  0  0  0  0  0  0  0  0  0
  -10.9688  -19.5871   -8.2173 N   0  0  0  0  0  0  0  0  0  0  0  0
  -10.6747  -19.5181   -7.2452 H   0  0  0  0  0  0  0  0  0  0  0  0
  -10.5120  -18.8488   -8.7414 H   0  0  0  0  0  0  0  0  0  0  0  0
  1  2  1  0
  1 20  1  0
  1 21  1  0
  1 22  1  0
  2  3  1  0
  2 19  1  0
  2 23  1  1
  3  4  1  0
  3 24  1  0
  3 25  1  0
  4  5  1  0
  4 17  1  0
  5  6  1  0
  5 26  1  0
  5 27  1  0
  6  7  2  0
  6  8  1  0
  8  9  1  0
  8 16  1  0
  9 28  1  0
  9 29  1  0
  9 10  1  0
 10 11  1  0
 10 30  1  0
 10 31  1  0
 11 12  1  0
 11 16  2  0
 12 13  2  0
 12 32  1  0
 13 14  1  0
 13 33  1  0
 14 15  2  0
 15 16  1  0
 15 34  1  0
 17 18  1  0
 17 35  1  0
 17 36  1  0
 18 19  1  0
 18 37  1  0
 18 38  1  0
 19 39  1  0
 19 40  1  0
 41 42  1  0
 41 43  1  0
 14 41  1  0
M  CHG  1  19   1
M  END
>  <attachment_point>  (1) 
33

>  <energies>  (1) 
[-538461.1657006198, -538460.036439484, -538460.0847578997, -538467.5830660356, -538465.0532066637, -538464.7997082965, -538466.4912589847, -538465.8767171926, -538465.7207910392, -538465.7367315909, -538465.4050246127, -538464.7972098185, -538467.6067266397, -538465.70083327, -538465.8585670674, -538464.7985094923, -538465.8008423185, -538468.2053629346, -538465.8093219037, -538466.3692608135, -538468.9911654177, -538465.6645679134, -538465.402584896, -538465.8644917774, -538465.716921478, -538466.6346532338, -538464.794646829, -538465.3019679852, -538466.5384525844, -538465.631093463, -538465.3090544901, -538465.7346155946, -538468.2017224419, -538465.9144541946, -538465.2597806472, -538465.9401116407, -538460.3116976621, -538465.2914732278, -538466.8089334015, -538465.6549016343, -538467.5641900104, -538465.885185362, -538465.646407479, -538465.652664151, -538464.790095468, -538465.2950206456, -538467.7459747375, -538466.4550665368, -538463.9466817031, -538465.7964850597, -538466.4047278601, -538465.2918903673, -538465.7273537316, -538465.8004338347, -538465.8439898855, -538459.9474006207, -538465.7459718316, -538465.6682990979, -538467.9846183, -538465.2950434455, -538465.9000319014, -538466.6862635342, -538467.7991811611, -538465.5090130515, -538465.724926746, -538468.3332414851, -538465.9440142483, -538465.650501638, -538465.7630696387, -538465.1569799302, -538467.4923452788, -538465.553425849, -538467.6086217492, -538466.3870137463, -538465.2275413937, -538460.5676848708, -538460.174695473, -538464.3607393261, -538465.3013891989, -538464.9369221999, -538465.7235193601, -538465.7415256699, -538468.8422067023, -538465.7459216268, -538459.9874905758, -538459.9578881174, -538467.619421571, -538460.3159175967, -538465.7221967225, -538466.5933947401, -538459.9791227304, -538466.3917003799, -538465.7567733862, -538465.7987661987, -538465.7817929876, -538465.2920054938, -538465.7955597156, -538465.8231095612, -538465.7676532503, -538465.1595816723, -538465.7209035709, -538465.3030207695, -538465.3190748781, -538465.8333681653, -538462.7388275247, -538466.3597033503, -538465.273162509, -538466.4668090071, -538465.2510414029, -538464.8284590646, -538465.6452363338, -538469.1072110542, -538467.9110527405, -538465.7157884525, -538464.8706927804, -538465.4653656079, -538467.6881461606, -538465.7794014231, -538468.9968688595, -538465.6215519748, -538465.8962760299, -538465.7058531137, -538465.6943163952, -538466.358854075, -538465.8062779001, -538466.3759619172, -538465.7599165677, -538460.1568804444, -538466.7674404482, -538465.3443202361, -538467.1173628992, -538465.7740189605, -538466.3998099768, -538465.6907597013, -538468.7862309065, -538465.6390446298, -538465.7367603629, -538467.705437453, -538464.6048981011, -538466.7620712136, -538465.7264543212, -538465.3017848773, -538465.5066866159, -538465.7291510495, -538467.5124523723, -538465.7070857462, -538467.9310903415, -538466.817819057, -538465.5983440479, -538460.3110486929, -538465.8649585171, -538464.8160340241, -538467.7271614072, -538467.6066428309, -538466.4347257622, -538465.667303911, -538465.5820304472, -538465.7284300299, -538464.8784056401, -538465.2805482945, -538460.3198626769, -538465.8166017637, -538459.6219514834, -538465.8303515586, -538467.6576664376, -538467.6005716232, -538468.010706797, -538464.9701254362, -538468.5225173286, -538465.7539604659, -538465.2505475332, -538465.8812284698, -538467.5637010335, -538465.7676319041, -538465.654486516, -538465.7373261497, -538467.669962176, -538465.2913300773, -538464.7985420933, -538465.3291021425, -538465.8470441473, -538461.8860780697, -538458.8939477323, -538465.6059086022, -538459.926466927, -538465.9788301602, -538465.7620086306, -538465.6292246924, -538465.7593423007, -538460.0539156146, -538465.7351478667, -538466.4557613495, -538466.2825878859, -538465.9126925458, -538465.5842122701, -538465.7440577684, -538467.5751856959, -538467.6685619147, -538466.3895501504]

>  <index>  (1) 
1

>  <Smiles>  (1) 
[H]c1c([H])c2c(c([H])c1N([H])[H])N(C(=O)C([H])([H])N1C([H])([H])C([H])([H])[N+]([H])([H])[C@]([H])(C([H])([H])[H])C1([H])[H])C([H])([H])C2([H])[H]

>  <score>  (1) 
<NA>

>  <h>  (1) 
33

>  <Training>  (1) 
False

>  <Success>  (1) 
nan

>  <enamine_searched>  (1) 
False

>  <enamine_id>  (1) 
nan

$$$$
