ligandXIAP.pdb
     RDKit          3D

 45 47  0  0  1  0  0  0  0  0999 V2000
  -15.3449  -21.5849   -0.2160 C   0  0  0  0  0  0  0  0  0  0  0  0
  -15.7833  -20.2720   -0.8354 C   0  0  2  0  0  0  0  0  0  0  0  0
  -15.6506  -20.2255   -2.3623 C   0  0  0  0  0  0  0  0  0  0  0  0
  -16.0499  -18.9033   -2.8320 N   0  0  0  0  0  0  0  0  0  0  0  0
  -16.3698  -18.8143   -4.2321 C   0  0  0  0  0  0  0  0  0  0  0  0
  -15.2823  -19.2239   -5.2414 C   0  0  0  0  0  0  0  0  0  0  0  0
  -14.1776  -19.6166   -4.9039 O   0  0  0  0  0  0  0  0  0  0  0  0
  -15.6404  -19.1183   -6.5683 N   0  0  0  0  0  0  0  0  0  0  0  0
  -16.9743  -18.7505   -7.0869 C   0  0  0  0  0  0  0  0  0  0  0  0
  -16.9166  -19.0841   -8.5920 C   0  0  0  0  0  0  0  0  0  0  0  0
  -15.4548  -19.3452   -8.8417 C   0  0  0  0  0  0  0  0  0  0  0  0
  -14.7737  -19.5594  -10.0250 C   0  0  0  0  0  0  0  0  0  0  0  0
  -13.3991  -19.7507  -10.0062 C   0  0  0  0  0  0  0  0  0  0  0  0
  -12.6973  -19.7205   -8.7909 C   0  0  0  0  0  0  0  0  0  0  0  0
  -13.3658  -19.5322   -7.5814 C   0  0  0  0  0  0  0  0  0  0  0  0
  -14.7499  -19.3549   -7.6377 C   0  0  0  0  0  0  0  0  0  0  0  0
  -15.1375  -17.8860   -2.3244 C   0  0  0  0  0  0  0  0  0  0  0  0
  -15.2596  -17.8474   -0.7952 C   0  0  0  0  0  0  0  0  0  0  0  0
  -14.9622  -19.1659   -0.2138 N   0  0  0  0  0  0  0  0  0  0  0  0
  -14.2901  -21.7804   -0.4436 H   0  0  0  0  0  0  0  0  0  0  0  0
  -15.9376  -22.4268   -0.5813 H   0  0  0  0  0  0  0  0  0  0  0  0
  -15.4582  -21.5350    0.8734 H   0  0  0  0  0  0  0  0  0  0  0  0
  -16.8280  -20.0642   -0.5957 H   0  0  0  0  0  0  0  0  0  0  0  0
  -16.3101  -20.9754   -2.8120 H   0  0  0  0  0  0  0  0  0  0  0  0
  -14.6165  -20.4687   -2.6612 H   0  0  0  0  0  0  0  0  0  0  0  0
  -16.6648  -17.7785   -4.4542 H   0  0  0  0  0  0  0  0  0  0  0  0
  -17.2671  -19.4223   -4.4217 H   0  0  0  0  0  0  0  0  0  0  0  0
  -17.1578  -17.6802   -6.9336 H   0  0  0  0  0  0  0  0  0  0  0  0
  -17.7609  -19.3143   -6.5786 H   0  0  0  0  0  0  0  0  0  0  0  0
  -17.2979  -18.2544   -9.1942 H   0  0  0  0  0  0  0  0  0  0  0  0
  -17.5217  -19.9665   -8.8261 H   0  0  0  0  0  0  0  0  0  0  0  0
  -15.3088  -19.5726  -10.9711 H   0  0  0  0  0  0  0  0  0  0  0  0
  -12.8439  -19.9112  -10.9238 H   0  0  0  0  0  0  0  0  0  0  0  0
  -12.8578  -19.5158   -6.6249 H   0  0  0  0  0  0  0  0  0  0  0  0
  -15.4266  -16.9113   -2.7323 H   0  0  0  0  0  0  0  0  0  0  0  0
  -14.0917  -18.0771   -2.6305 H   0  0  0  0  0  0  0  0  0  0  0  0
  -16.2946  -17.5894   -0.5617 H   0  0  0  0  0  0  0  0  0  0  0  0
  -14.6040  -17.0907   -0.3673 H   0  0  0  0  0  0  0  0  0  0  0  0
  -15.1389  -19.1849    0.8108 H   0  0  0  0  0  0  0  0  0  0  0  0
  -13.9459  -19.3856   -0.3919 H   0  0  0  0  0  0  0  0  0  0  0  0
  -11.3463  -19.8894   -8.8876 O   0  0  0  0  0  0  0  0  0  0  0  0
  -10.5997  -19.7069   -7.7026 C   0  0  0  0  0  0  0  0  0  0  0  0
   -9.5489  -19.7782   -7.9840 H   0  0  0  0  0  0  0  0  0  0  0  0
  -10.7848  -18.7205   -7.2571 H   0  0  0  0  0  0  0  0  0  0  0  0
  -10.8264  -20.4884   -6.9648 H   0  0  0  0  0  0  0  0  0  0  0  0
  1  2  1  0
  1 20  1  0
  1 21  1  0
  1 22  1  0
  2  3  1  0
  2 19  1  0
  2 23  1  6
  3  4  1  0
  3 24  1  0
  3 25  1  0
  4  5  1  0
  4 17  1  0
  5  6  1  0
  5 26  1  0
  5 27  1  0
  6  7  2  0
  6  8  1  0
  8  9  1  0
  8 16  1  0
  9 28  1  0
  9 29  1  0
  9 10  1  0
 10 11  1  0
 10 30  1  0
 10 31  1  0
 11 12  1  0
 11 16  2  0
 12 13  2  0
 12 32  1  0
 13 14  1  0
 13 33  1  0
 14 15  2  0
 15 16  1  0
 15 34  1  0
 17 18  1  0
 17 35  1  0
 17 36  1  0
 18 19  1  0
 18 37  1  0
 18 38  1  0
 19 39  1  0
 19 40  1  0
 41 42  1  0
 42 43  1  0
 42 44  1  0
 42 45  1  0
 14 41  1  0
M  CHG  1  19   1
M  END
>  <attachment_point>  (1) 
33

>  <energies>  (1) 
[-575468.6932832274, -575589.6917254563, -575579.2959570037, -575589.6966200438, -575589.4923346823, -575589.6420287363, -575579.171280328, -575582.3082494248, -575589.5933774636, -575589.7664221362, -575579.0460874875, -575589.5914267653, -575584.9104862416, -575589.5584666631, -575589.6931263825, -575589.5799626852, -575582.3598653396, -575589.653857645, -575581.6232305719, -575589.757208323, -575589.6564226095, -575589.6907662683, -575579.0678360634, -575582.3066089317, -575579.0472924727, -575579.0432161922, -575575.8257448829, -575589.8383202219, -575579.0469196449, -575589.5540680335, -575589.692849773, -575579.0465639655, -575589.7557123386, -575589.6421205652, -575589.7846955067, -575589.8667224728, -575582.3232404819, -575589.5479851759, -575589.520180293, -575589.8002948683, -575579.0498236993, -575589.5501690224, -575579.048947978, -575582.0997873365, -575576.2161740562, -575589.5146274562, -575589.5773005518, -575589.6516879443, -575589.6061537988, -575575.4023992503, -575579.0784234381, -575589.5768899015, -575589.7829874043, -575579.061568786, -575589.6697728953, -575589.5242433506, -575582.4121856897, -575589.6524004511, -575579.151538358, -575579.0464297557, -575589.5093603334, -575589.4515743636, -575589.5883452637, -575589.6978748228, -575575.1317373315, -575589.5416455516, -575589.5574297475, -575589.5624095034, -575579.0195035599, -575589.4567437952, -575589.6046043395, -575581.952174941, -575589.5826818534, -575589.6258883395, -575589.7220904045, -575579.0457656841, -575589.5542356714, -575589.7674879265, -575589.6178028092, -575589.5330556951, -575589.6969060515, -575582.1590405292, -575579.0467715166, -575579.1433598322, -575589.6045574262, -575579.1425578953, -575589.7302941231, -575589.8165773553, -575589.6126935512, -575589.1611758902, -575579.0578134201, -575589.6567890163, -575582.3168948637, -575579.0489478336, -575589.5183201373, -575586.3990215531, -575589.8243479326, -575589.6160720515, -575581.8052222377, -575589.7224266779, -575582.3040021945, -575589.5287260574, -575575.1804393318, -575589.6239515368, -575589.6199717299, -575579.0091797337, -575589.5066029006, -575589.8110709493, -575589.5676437613, -575589.5259744494, -575589.5884759603, -575579.1433677288, -575579.0713788822, -575589.6074087265, -575589.8484224733, -575589.6391002099, -575589.5255142833, -575589.6639444979, -575589.6069024215, -575589.5981744182, -575582.3207263364, -575589.5175608372, -575589.6260735688, -575589.6975226154, -575589.6359511894, -575589.7002364551, -575589.6488964666, -575589.6782412155, -575589.5825753916, -575589.4648848687, -575586.03281849, -575589.6922211903, -575589.4431554811, -575589.9176921095, -575589.5599286623, -575589.820544203, -575579.1415623166, -575579.0475810332, -575589.6527143798, -575589.6968542315, -575579.0550041724, -575589.6935457529, -575589.5999765204, -575589.5602006582, -575589.7385051076, -575589.4563706099, -575589.4981810566, -575589.6338373388, -575589.6988334515, -575589.5902163475, -575582.3297830194, -575589.6833759416, -575589.7097448537, -575589.4570606463, -575589.595709999, -575589.576321247, -575589.5118400397, -575589.5826162626, -575589.5483124985, -575589.5082379415, -575589.6430948332, -575589.7993677307, -575579.0060440656, -575589.6792677391, -575589.6260719234, -575578.9888420762, -575585.9160246252, -575589.5961435144, -575579.0500711212, -575589.250066934, -575589.4849337818, -575589.4573782308, -575589.6017607014, -575589.5695679748, -575589.4053993901, -575589.6290386695, -575589.665662966, -575589.6167440369, -575589.797930984, -575579.1373013557, -575589.690419742, -575589.4490511083, -575589.2330191995, -575582.3118964887, -575589.6405042028, -575589.6937269497, -575579.0579529695, -575589.6609040906, -575589.548094336, -575579.3444614537, -575582.3227738333, -575589.6145570861, -575589.579931343, -575589.5868559803, -575589.5180361182, -575589.691406866, -575579.1382842984, -575589.5507086418, -575589.7905275392, -575589.3599186548, -575589.6916131567]

>  <index>  (1) 
0

>  <Smiles>  (1) 
[H]c1c([H])c2c(c([H])c1OC([H])([H])[H])N(C(=O)C([H])([H])N1C([H])([H])C([H])([H])[N+]([H])([H])[C@]([H])(C([H])([H])[H])C1([H])[H])C([H])([H])C2([H])[H]

>  <score>  (1) 
<NA>

>  <h>  (1) 
33

>  <Training>  (1) 
False

>  <Success>  (1) 
nan

>  <enamine_searched>  (1) 
False

>  <enamine_id>  (1) 
nan

$$$$
