12   
Iteration 0 Energy -526.82136306
C       -1.4262169184   -0.1383803328   -0.0150639183
C       -0.6127646884   -1.2549894342   -0.0691572595
C        0.7702862711   -1.1452259149   -0.0558338844
C        1.3182310587    0.1206778205    0.0135384063
C        0.5163460500    1.2447195545    0.0680862313
C       -0.8540944209    1.1244173229    0.0542772461
F        1.0412897056    2.4951586415    0.1365312818
F        2.6596796459    0.2974338253    0.0301405792
F        1.5441024400   -2.2564570730   -0.1098524581
H       -2.4846027627   -0.2533208033   -0.0268883196
H       -1.0082166538   -2.2611166160   -0.1240689415
H       -1.4640397272    2.0270830202    0.0982910421
12   
Iteration 1 Energy -526.82198265
C       -1.4010115492   -0.1556166776   -0.0158256471
C       -0.6388518217   -1.3109324039   -0.0722320770
C        0.7211550611   -1.0641301098   -0.0518477993
C        1.3670773805    0.1491544692    0.0153019727
C        0.5211626191    1.2359562800    0.0676567893
C       -0.8529815218    1.1200825281    0.0540615673
F        1.0681344582    2.4328316789    0.1334036863
F        2.6816607416    0.2709644234    0.0288816329
F        1.5044091887   -2.1172556226   -0.1027828816
H       -2.4782328474   -0.2552255602   -0.0269448342
H       -1.0324344859   -2.3170893467   -0.1271415701
H       -1.4600872231    2.0112603519    0.0974691660
12   
Iteration 2 Energy -526.82868786
C       -1.4212482461   -0.1466774345   -0.0154675875
C       -0.6147712569   -1.2748331181   -0.0702074613
C        0.7567416662   -1.1056755030   -0.0538313861
C        1.3441665329    0.1384662498    0.0146161851
C        0.5159166561    1.2433667593    0.0680167404
C       -0.8593804889    1.1217951287    0.0541165285
F        1.0734229539    2.4277265505    0.1331649362
F        2.6457188082    0.2701639416    0.0286430456
F        1.5410034531   -2.1567905391   -0.1046556840
H       -2.5005301483   -0.2566646405   -0.0271420934
H       -1.0186167867   -2.2745872996   -0.1248376287
H       -1.4624231436    2.0137099154    0.0975844104
12   
Iteration 3 Energy -526.82860930
C       -1.4042868537   -0.1456521084   -0.0153215350
C       -0.6141313483   -1.2831917144   -0.0706424434
C        0.7585608983   -1.1250485470   -0.0548394151
C        1.3234058475    0.1364257901    0.0143942846
C        0.5164663342    1.2602633204    0.0689052617
C       -0.8571155795    1.1277726287    0.0544417804
F        1.0765852044    2.4492055330    0.1343111789
F        2.6290375990    0.2712335330    0.0286071864
F        1.5500555630   -2.1747449774   -0.1055454747
H       -2.4785287845   -0.2543077504   -0.0268972004
H       -1.0295574725   -2.2792868711   -0.1251430850
H       -1.4704914078    2.0173311740    0.0977294669
12   
Iteration 4 Energy -526.82891957
C       -1.4159314486   -0.1456109060   -0.0153830811
C       -0.6129129337   -1.2742427809   -0.0701665442
C        0.7606349032   -1.1207088773   -0.0546005098
C        1.3337672079    0.1364993516    0.0144548581
C        0.5160790508    1.2518857602    0.0684638985
C       -0.8586287637    1.1229241512    0.0541793200
F        1.0729538246    2.4406128950    0.1338407484
F        2.6399875513    0.2723261756    0.0287244173
F        1.5481237708   -2.1717904455   -0.1054011776
H       -2.4903323990   -0.2555656743   -0.0270277098
H       -1.0256519622   -2.2712820924   -0.1247020293
H       -1.4680888013    2.0149524535    0.0976178150
12   
Iteration 5 Energy -526.82893684
C       -1.4176282575   -0.1454043714   -0.0153811740
C       -0.6118126056   -1.2734503921   -0.0701186839
C        0.7605860856   -1.1175463574   -0.0544340302
C        1.3360344870    0.1368513819    0.0144865058
C        0.5152831478    1.2484310640    0.0682787937
C       -0.8599952252    1.1235216942    0.0542038799
F        1.0737339232    2.4340012154    0.1334971628
F        2.6400762498    0.2708534040    0.0286482693
F        1.5481804846   -2.1661792745   -0.1051081470
H       -2.4934774322   -0.2559653722   -0.0270655578
H       -1.0238255700   -2.2705928628   -0.1246566114
H       -1.4671552877    2.0154798814    0.0976495981
12   
Iteration 6 Energy -526.82893992
C       -1.4194879786   -0.1462612573   -0.0154363250
C       -0.6126064383   -1.2733201609   -0.0701162355
C        0.7598370876   -1.1172076939   -0.0544206998
C        1.3365311358    0.1375641826    0.0145264686
C        0.5168328407    1.2501131028    0.0683754056
C       -0.8581121708    1.1207946903    0.0540711503
F        1.0736423188    2.4374960968    0.1336802457
F        2.6413746188    0.2710141297    0.0286637635
F        1.5474047449   -2.1664894734   -0.1051284015
H       -2.4949129533   -0.2560160856   -0.0270758631
H       -1.0247136674   -2.2705363705   -0.1246584513
H       -1.4657895383    2.0128488500    0.0975189479
12   
Iteration 7 Energy -526.82894219
C       -1.4181291595   -0.1453519502   -0.0153813019
C       -0.6118950736   -1.2727218053   -0.0700810417
C        0.7609028103   -1.1191621586   -0.0545176529
C        1.3363671754    0.1367764116    0.0144840723
C        0.5156392585    1.2489752167    0.0683091123
C       -0.8596308752    1.1226345645    0.0541591819
F        1.0724150241    2.4369547014    0.1336454895
F        2.6417962472    0.2716278585    0.0286981191
F        1.5484074852   -2.1692855728   -0.1052691257
H       -2.4929903327   -0.2558546151   -0.0270568447
H       -1.0251097683   -2.2695346747   -0.1246079591
H       -1.4677727914    2.0149420345    0.0976179562
12   
Iteration 8 Energy -526.82894440
C       -1.4181961741   -0.1455880063   -0.0153939920
C       -0.6120677924   -1.2732782144   -0.0701111054
C        0.7604211210   -1.1182298770   -0.0544711577
C        1.3361312672    0.1370850021    0.0144991154
C        0.5159647461    1.2492860465    0.0683272543
C       -0.8592832078    1.1223667448    0.0541471306
F        1.0731863680    2.4364598801    0.1336234872
F        2.6409942687    0.2711019479    0.0286662375
F        1.5481890726   -2.1675458084   -0.1051793855
H       -2.4934943803   -0.2559131418   -0.0270627313
H       -1.0247846264   -2.2702195674   -0.1246421897
H       -1.4670606627    2.0144750045    0.0975973419
12   
Iteration 9 Energy -526.82894446
C       -1.4183454014   -0.1456001768   -0.0153954510
C       -0.6120750112   -1.2732072826   -0.0701074387
C        0.7604013737   -1.1182603310   -0.0544728880
C        1.3362284923    0.1371216046    0.0145015490
C        0.5160396681    1.2493041722    0.0683286054
C       -0.8592255906    1.1222142150    0.0541394516
F        1.0730813139    2.4366539092    0.1336331012
F        2.6411802123    0.2711200279    0.0286681969
F        1.5481631019   -2.1676488887   -0.1051848846
H       -2.4935900240   -0.2559224763   -0.0270637256
H       -1.0248464286   -2.2701409824   -0.1246384206
H       -1.4670117063    2.0143662195    0.0975919096
