in.pdb
     RDKit          3D

 53 56  0  0  1  0  0  0  0  0999 V2000
    8.3480    1.1742   16.0713 C   0  0  0  0  0  0  0  0  0  0  0  0
    9.0554    0.2612   15.2934 C   0  0  0  0  0  0  0  0  0  0  0  0
   10.2881   -0.2030   15.7291 C   0  0  0  0  0  0  0  0  0  0  0  0
   10.7961    0.2075   16.9580 C   0  0  0  0  0  0  0  0  0  0  0  0
   10.0726    1.1056   17.7339 C   0  0  0  0  0  0  0  0  0  0  0  0
    8.8586    1.6335   17.2958 C   0  0  0  0  0  0  0  0  0  0  0  0
    8.1947    2.6481   18.1580 C   0  0  0  0  0  0  0  0  0  0  0  0
    8.3285    4.0180   17.9109 C   0  0  0  0  0  0  0  0  0  0  0  0
    7.7829    4.9267   18.8002 C   0  0  0  0  0  0  0  0  0  0  0  0
    7.5164    2.2733   19.3111 C   0  0  0  0  0  0  0  0  0  0  0  0
    6.8841    3.1284   20.1190 N   0  0  0  0  0  0  0  0  0  0  0  0
    7.0377    4.4322   19.8773 C   0  0  0  0  0  0  0  0  0  0  0  0
    6.3347    5.3145   20.7256 N   0  0  0  0  0  0  0  0  0  0  0  0
    6.8320    6.4991   21.2427 C   0  0  0  0  0  0  0  0  0  0  0  0
    7.9489    6.9447   21.0770 O   0  0  0  0  0  0  0  0  0  0  0  0
    4.9866    5.0151   21.2045 C   0  0  0  0  0  0  0  0  0  0  0  0
    4.4647    6.3875   21.6307 C   0  0  0  0  0  0  0  0  0  0  0  0
    5.7164    7.1359   22.0868 C   0  0  2  0  0  0  0  0  0  0  0  0
    5.5955    8.5729   21.9115 N   0  0  0  0  0  0  0  0  0  0  0  0
    6.1985    9.6531   23.0249 S   0  0  0  0  0  0  0  0  0  0  0  0
    6.3487   10.8921   22.2833 O   0  0  0  0  0  0  0  0  0  0  0  0
    5.3704    9.6027   24.2164 O   0  0  0  0  0  0  0  0  0  0  0  0
    7.7993    9.0134   23.4412 C   0  0  0  0  0  0  0  0  0  0  0  0
    8.0316    8.5925   24.6945 C   0  0  0  0  0  0  0  0  0  0  0  0
    9.2872    8.1251   25.2526 C   0  0  0  0  0  0  0  0  0  0  0  0
   10.7953    8.1668   24.4016 S   0  0  0  0  0  0  0  0  0  0  0  0
    9.4516    7.6149   26.5159 C   0  0  0  0  0  0  0  0  0  0  0  0
   10.7956    7.2715   26.8244 C   0  0  0  0  0  0  0  0  0  0  0  0
   11.6240    7.5239   25.7721 C   0  0  0  0  0  0  0  0  0  0  0  0
   13.3236    7.2711   25.7188 Cl  0  0  0  0  0  0  0  0  0  0  0  0
    8.6133   -0.0885   14.3631 H   0  0  0  0  0  0  0  0  0  0  0  0
   10.8429   -0.8978   15.1092 H   0  0  0  0  0  0  0  0  0  0  0  0
   11.7529   -0.1667   17.3117 H   0  0  0  0  0  0  0  0  0  0  0  0
   10.4375    1.4244   18.7043 H   0  0  0  0  0  0  0  0  0  0  0  0
    8.8442    4.3448   17.0095 H   0  0  0  0  0  0  0  0  0  0  0  0
    7.9168    5.9904   18.6586 H   0  0  0  0  0  0  0  0  0  0  0  0
    7.4382    1.2139   19.5666 H   0  0  0  0  0  0  0  0  0  0  0  0
    5.0222    4.2938   22.0323 H   0  0  0  0  0  0  0  0  0  0  0  0
    4.3900    4.5756   20.3994 H   0  0  0  0  0  0  0  0  0  0  0  0
    3.7114    6.3316   22.4186 H   0  0  0  0  0  0  0  0  0  0  0  0
    4.0274    6.9107   20.7724 H   0  0  0  0  0  0  0  0  0  0  0  0
    5.9269    6.9229   23.1399 H   0  0  0  0  0  0  0  0  0  0  0  0
    5.8046    8.9038   20.9716 H   0  0  0  0  0  0  0  0  0  0  0  0
    8.5001    9.0007   22.6089 H   0  0  0  0  0  0  0  0  0  0  0  0
    7.2131    8.6052   25.4086 H   0  0  0  0  0  0  0  0  0  0  0  0
    8.6195    7.4812   27.1994 H   0  0  0  0  0  0  0  0  0  0  0  0
   11.1295    6.8699   27.7764 H   0  0  0  0  0  0  0  0  0  0  0  0
    6.7587    1.7058   15.4559 S   0  0  0  0  0  6  0  0  0  0  0  0
    5.6281    1.2084   16.5680 N   0  0  0  0  0  0  0  0  0  0  0  0
    6.4879    0.9488   14.2483 O   0  0  0  0  0  0  0  0  0  0  0  0
    6.7108    3.1566   15.4738 O   0  0  0  0  0  0  0  0  0  0  0  0
    5.7084    1.7186   17.4424 H   0  0  0  0  0  0  0  0  0  0  0  0
    5.5883    0.2003   16.6869 H   0  0  0  0  0  0  0  0  0  0  0  0
  1  6  2  0
  2  3  2  0
  2  1  1  0
  2 31  1  0
  3  4  1  0
  3 32  1  0
  4  5  2  0
  4 33  1  0
  5 34  1  0
  6  5  1  0
  6  7  1  0
  7 10  1  0
  8  7  2  0
  8  9  1  0
  8 35  1  0
  9 12  2  0
  9 36  1  0
 10 11  2  0
 10 37  1  0
 12 11  1  0
 12 13  1  0
 13 16  1  0
 13 14  1  0
 14 18  1  0
 15 14  2  0
 16 17  1  0
 16 38  1  0
 16 39  1  0
 17 18  1  0
 17 40  1  0
 17 41  1  0
 18 42  1  1
 19 18  1  0
 19 20  1  0
 19 43  1  0
 20 23  1  0
 20 22  2  0
 21 20  2  0
 23 24  2  0
 23 44  1  0
 24 25  1  0
 24 45  1  0
 25 27  2  0
 26 25  1  0
 26 29  1  0
 27 28  1  0
 27 46  1  0
 28 47  1  0
 29 28  2  0
 30 29  1  0
 48 49  1  0
 48 50  2  0
 48 51  2  0
 49 52  1  0
 49 53  1  0
  1 48  1  0
M  END
>  <attachment_point>  (1) 
30

>  <energies>  (1) 
[-1875832.559342415, -1875829.247977352, -1875828.654420789, -1875827.2493798, -1875826.1383847215, -1875826.2641998332, -1875824.2896799736]

>  <index>  (1) 
4

>  <Smiles>  (1) 
[H]/C(=C(/[H])S(=O)(=O)N([H])[C@]1([H])C(=O)N(c2nc([H])c(-c3c([H])c([H])c([H])c([H])c3S(=O)(=O)N([H])[H])c([H])c2[H])C([H])([H])C1([H])[H])c1sc(Cl)c([H])c1[H]

>  <score>  (1) 
<NA>

>  <h>  (1) 
30

>  <Training>  (1) 
False

>  <Success>  (1) 
nan

>  <enamine_searched>  (1) 
False

>  <enamine_id>  (1) 
nan

$$$$
