in.pdb
     RDKit          3D

 54 57  0  0  1  0  0  0  0  0999 V2000
    8.4116    1.2645   16.0026 C   0  0  0  0  0  0  0  0  0  0  0  0
    9.1521    0.3753   15.2322 C   0  0  0  0  0  0  0  0  0  0  0  0
   10.3591   -0.1193   15.7088 C   0  0  0  0  0  0  0  0  0  0  0  0
   10.8066    0.2459   16.9761 C   0  0  0  0  0  0  0  0  0  0  0  0
   10.0546    1.1285   17.7429 C   0  0  0  0  0  0  0  0  0  0  0  0
    8.8728    1.6918   17.2568 C   0  0  0  0  0  0  0  0  0  0  0  0
    8.1949    2.7017   18.1092 C   0  0  0  0  0  0  0  0  0  0  0  0
    8.4113    4.0726   17.9350 C   0  0  0  0  0  0  0  0  0  0  0  0
    7.8574    4.9708   18.8304 C   0  0  0  0  0  0  0  0  0  0  0  0
    7.4269    2.3146   19.1987 C   0  0  0  0  0  0  0  0  0  0  0  0
    6.7963    3.1635   20.0127 N   0  0  0  0  0  0  0  0  0  0  0  0
    7.0276    4.4662   19.8405 C   0  0  0  0  0  0  0  0  0  0  0  0
    6.3273    5.3337   20.7012 N   0  0  0  0  0  0  0  0  0  0  0  0
    6.8239    6.5045   21.2454 C   0  0  0  0  0  0  0  0  0  0  0  0
    7.9420    6.9529   21.0916 O   0  0  0  0  0  0  0  0  0  0  0  0
    4.9916    5.0115   21.2001 C   0  0  0  0  0  0  0  0  0  0  0  0
    4.4596    6.3730   21.6431 C   0  0  0  0  0  0  0  0  0  0  0  0
    5.7077    7.1279   22.0932 C   0  0  2  0  0  0  0  0  0  0  0  0
    5.5871    8.5658   21.9045 N   0  0  0  0  0  0  0  0  0  0  0  0
    6.1923    9.6399   23.0282 S   0  0  0  0  0  0  0  0  0  0  0  0
    6.3405   10.8868   22.2972 O   0  0  0  0  0  0  0  0  0  0  0  0
    5.3650    9.5785   24.2182 O   0  0  0  0  0  0  0  0  0  0  0  0
    7.7911    8.9960   23.4403 C   0  0  0  0  0  0  0  0  0  0  0  0
    8.0300    8.5834   24.6933 C   0  0  0  0  0  0  0  0  0  0  0  0
    9.2853    8.1136   25.2495 C   0  0  0  0  0  0  0  0  0  0  0  0
   10.7898    8.1413   24.3923 S   0  0  0  0  0  0  0  0  0  0  0  0
    9.4535    7.6157   26.5186 C   0  0  0  0  0  0  0  0  0  0  0  0
   10.7987    7.2751   26.8250 C   0  0  0  0  0  0  0  0  0  0  0  0
   11.6231    7.5137   25.7673 C   0  0  0  0  0  0  0  0  0  0  0  0
   13.3223    7.2577   25.7104 Cl  0  0  0  0  0  0  0  0  0  0  0  0
    8.7495    0.0644   14.2716 H   0  0  0  0  0  0  0  0  0  0  0  0
   10.9453   -0.7978   15.0945 H   0  0  0  0  0  0  0  0  0  0  0  0
   11.7390   -0.1531   17.3694 H   0  0  0  0  0  0  0  0  0  0  0  0
   10.3668    1.4173   18.7416 H   0  0  0  0  0  0  0  0  0  0  0  0
    9.0086    4.4166   17.0896 H   0  0  0  0  0  0  0  0  0  0  0  0
    8.0542    6.0326   18.7527 H   0  0  0  0  0  0  0  0  0  0  0  0
    7.2853    1.2512   19.4038 H   0  0  0  0  0  0  0  0  0  0  0  0
    5.0544    4.2887   22.0246 H   0  0  0  0  0  0  0  0  0  0  0  0
    4.3887    4.5635   20.4051 H   0  0  0  0  0  0  0  0  0  0  0  0
    3.7085    6.3053   22.4324 H   0  0  0  0  0  0  0  0  0  0  0  0
    4.0179    6.9008   20.7916 H   0  0  0  0  0  0  0  0  0  0  0  0
    5.9209    6.9139   23.1448 H   0  0  0  0  0  0  0  0  0  0  0  0
    5.8657    8.8792   20.9811 H   0  0  0  0  0  0  0  0  0  0  0  0
    8.4859    8.9737   22.6034 H   0  0  0  0  0  0  0  0  0  0  0  0
    7.2132    8.5985   25.4102 H   0  0  0  0  0  0  0  0  0  0  0  0
    8.6236    7.4926   27.2053 H   0  0  0  0  0  0  0  0  0  0  0  0
   11.1352    6.8850   27.7808 H   0  0  0  0  0  0  0  0  0  0  0  0
    6.8227    1.7828   15.3523 S   0  0  0  0  0  6  0  0  0  0  0  0
    5.6395    1.1672   16.5651 C   0  0  0  0  0  0  0  0  0  0  0  0
    6.5921    1.0425   14.1114 O   0  0  0  0  0  0  0  0  0  0  0  0
    6.7414    3.2391   15.3591 O   0  0  0  0  0  0  0  0  0  0  0  0
    4.9053    0.5433   16.0513 H   0  0  0  0  0  0  0  0  0  0  0  0
    5.1543    2.0246   17.0338 H   0  0  0  0  0  0  0  0  0  0  0  0
    6.1421    0.5607   17.3207 H   0  0  0  0  0  0  0  0  0  0  0  0
  1  6  2  0
  2  3  2  0
  2  1  1  0
  2 31  1  0
  3  4  1  0
  3 32  1  0
  4  5  2  0
  4 33  1  0
  5 34  1  0
  6  5  1  0
  6  7  1  0
  7 10  1  0
  8  7  2  0
  8  9  1  0
  8 35  1  0
  9 12  2  0
  9 36  1  0
 10 11  2  0
 10 37  1  0
 12 11  1  0
 12 13  1  0
 13 16  1  0
 13 14  1  0
 14 18  1  0
 15 14  2  0
 16 17  1  0
 16 38  1  0
 16 39  1  0
 17 18  1  0
 17 40  1  0
 17 41  1  0
 18 42  1  1
 19 18  1  0
 19 20  1  0
 19 43  1  0
 20 23  1  0
 20 22  2  0
 21 20  2  0
 23 24  2  0
 23 44  1  0
 24 25  1  0
 24 45  1  0
 25 27  2  0
 26 25  1  0
 26 29  1  0
 27 28  1  0
 27 46  1  0
 28 47  1  0
 29 28  2  0
 30 29  1  0
 48 49  1  0
 48 50  2  0
 48 51  2  0
 49 52  1  0
 49 53  1  0
 49 54  1  0
  1 48  1  0
M  END
>  <attachment_point>  (1) 
30

>  <energies>  (1) 
[-1865769.478779258, -1865766.4744680296, -1865768.2914963656, -1865766.47360393, -1865764.574785325, -1865764.5670675251, -1865768.2845786733]

>  <index>  (1) 
3

>  <Smiles>  (1) 
[H]/C(=C(/[H])S(=O)(=O)N([H])[C@]1([H])C(=O)N(c2nc([H])c(-c3c([H])c([H])c([H])c([H])c3S(=O)(=O)C([H])([H])[H])c([H])c2[H])C([H])([H])C1([H])[H])c1sc(Cl)c([H])c1[H]

>  <score>  (1) 
<NA>

>  <h>  (1) 
30

>  <Training>  (1) 
False

>  <Success>  (1) 
nan

>  <enamine_searched>  (1) 
False

>  <enamine_id>  (1) 
nan

$$$$
