13   
Iteration 0 Energy -230.78805106
C       -1.0501366543   -0.0793895359    0.2630165417
C       -0.1838331891    0.8412833158   -0.6063302640
C        1.1454230863    0.5811494140    0.0896878166
O        1.0929739358   -0.6780197105    0.6211226297
C       -0.0893835344   -1.2778975210    0.2671475054
H       -1.0682848714    0.3079325054    1.2858674695
H       -2.0057618830   -0.3075981394   -0.1863438598
H       -0.4956402030    1.8739195240   -0.5708099898
H       -0.1135931060    0.3965431870   -1.6044131689
H        1.9988616185    0.6653751269   -0.5973688702
H        1.2338628543    1.3540910064    0.9080847207
H       -0.4161946008   -2.0640858531    0.9407909680
H       -0.0482934531   -1.6133033090   -0.8104514988
13   
Iteration 1 Energy -230.80222784
C       -1.0869925911   -0.0995071306    0.2026806644
C       -0.1901912151    0.8752141331   -0.5844954115
C        1.1839409308    0.6027664669    0.0788848644
O        1.1174755129   -0.7005297773    0.5848838904
C       -0.1117858554   -1.2851847693    0.2790507270
H       -1.1965893487    0.2940714340    1.2140848175
H       -2.0584276566   -0.3228367756   -0.2385493439
H       -0.4904939737    1.9196159923   -0.5313665381
H       -0.1690087566    0.5443972196   -1.6227515481
H        2.0217803487    0.7135813581   -0.6121209379
H        1.3679683033    1.2873598062    0.9104708656
H       -0.3459121529   -2.0498913262    1.0150138691
H       -0.0417635456   -1.7790566205   -0.6957859188
13   
Iteration 2 Energy -230.80434919
C       -1.0640743021   -0.1107490149    0.1942516588
C       -0.1818899902    0.8784207776   -0.5722725292
C        1.1856522130    0.6108117107    0.0733375378
O        1.1282398590   -0.7077472142    0.5656579269
C       -0.1129036633   -1.2939592030    0.2806650261
H       -1.2386004634    0.2714687728    1.2034505519
H       -2.0275537240   -0.3317407417   -0.2637546410
H       -0.4915623827    1.9216616270   -0.5050860880
H       -0.1569511941    0.6052234586   -1.6293780964
H        2.0088266918    0.7219572099   -0.6341353230
H        1.3783087252    1.2879605668    0.9045036239
H       -0.3514854046   -2.0223179591    1.0548281840
H       -0.0760063647   -1.8309899800   -0.6720678320
13   
Iteration 3 Energy -230.80503154
C       -1.0585601229   -0.1148921293    0.1842032085
C       -0.1800776537    0.8826732630   -0.5585565521
C        1.1906161434    0.6089624850    0.0633483350
O        1.1455384394   -0.7165823237    0.5407832179
C       -0.1085448335   -1.2930643072    0.2878301087
H       -1.2878743902    0.2593264181    1.1861999729
H       -2.0076033309   -0.3390615572   -0.3038628441
H       -0.4991084153    1.9216517719   -0.4657589369
H       -0.1631776589    0.6490360163   -1.6266556845
H        2.0047941254    0.7146146630   -0.6558064243
H        1.3958043277    1.2770991126    0.9030679055
H       -0.3472496006   -1.9866321944    1.0940091702
H       -0.0845570298   -1.8631312076   -0.6488014769
13   
Iteration 4 Energy -230.80533632
C       -1.0576775117   -0.1182186848    0.1768576453
C       -0.1778698112    0.8909424438   -0.5517891136
C        1.1963740742    0.6088455037    0.0549215925
O        1.1517208293   -0.7209405348    0.5178517909
C       -0.1075405425   -1.2981557950    0.2973947050
H       -1.3206626054    0.2515283482    1.1719622363
H       -1.9897218200   -0.3528397286   -0.3388506789
H       -0.4963167393    1.9271882032   -0.4321263878
H       -0.1704988165    0.6808316796   -1.6248804830
H        2.0053030210    0.7178160288   -0.6694830060
H        1.4084805032    1.2703432212    0.8993546867
H       -0.3421771856   -1.9675465697    1.1247749406
H       -0.0994133956   -1.8897941050   -0.6259879278
13   
Iteration 5 Energy -230.80547944
C       -1.0610569501   -0.1188539580    0.1710463907
C       -0.1785238584    0.8977347074   -0.5491255160
C        1.1995194846    0.6040941257    0.0494706472
O        1.1596857296   -0.7276879164    0.4971886575
C       -0.1048855691   -1.2980452003    0.3044245583
H       -1.3459842979    0.2509371904    1.1593185236
H       -1.9763023688   -0.3655118621   -0.3681229570
H       -0.4922519144    1.9317104593   -0.4037658896
H       -0.1796045444    0.7034232332   -1.6245496408
H        2.0053009824    0.7220081304   -0.6766489301
H        1.4159958683    1.2579383435    0.8981402101
H       -0.3315108468   -1.9489628467    1.1481444988
H       -0.1103817152   -1.9087843958   -0.6055205528
13   
Iteration 6 Energy -230.80549573
C       -1.0623925295   -0.1197188176    0.1698097033
C       -0.1780877200    0.8986917238   -0.5491301879
C        1.2007882159    0.6037780600    0.0480132791
O        1.1607913347   -0.7288117918    0.4892684611
C       -0.1055471809   -1.2982726515    0.3059769643
H       -1.3486951209    0.2511068991    1.1568269233
H       -1.9744120813   -0.3694155347   -0.3731646247
H       -0.4891955779    1.9325100348   -0.3979324657
H       -0.1795945931    0.7065233204   -1.6244842158
H        2.0067659761    0.7282900425   -0.6771291955
H        1.4157436903    1.2557664337    0.8988349802
H       -0.3302636516   -1.9458484526    1.1531351604
H       -0.1159007617   -1.9145992556   -0.6000247821
13   
Iteration 7 Energy -230.80550316
C       -1.0620201205   -0.1194727760    0.1692927399
C       -0.1781707518    0.8992486238   -0.5501473475
C        1.2001599322    0.6033356690    0.0481333533
O        1.1620872605   -0.7305967515    0.4837997527
C       -0.1055896363   -1.2986707669    0.3059782369
H       -1.3468927334    0.2527707369    1.1561137198
H       -1.9739599238   -0.3696236136   -0.3733665438
H       -0.4886531642    1.9331518930   -0.3981581773
H       -0.1794941031    0.7069047646   -1.6253865093
H        2.0071323607    0.7325578337   -0.6750795774
H        1.4129660207    1.2529904625    0.9013685663
H       -0.3287829976   -1.9443796180    1.1551300811
H       -0.1187821433   -1.9182164469   -0.5976782947
13   
Iteration 8 Energy -230.80552371
C       -1.0607055922   -0.1185101440    0.1686296605
C       -0.1775446130    0.8991784681   -0.5535539982
C        1.1987567542    0.6030974953    0.0488472637
O        1.1665590649   -0.7361052094    0.4644441681
C       -0.1059795859   -1.2994718686    0.3046187238
H       -1.3399712479    0.2569378860    1.1558373884
H       -1.9747349294   -0.3684938224   -0.3701932292
H       -0.4876558420    1.9333500802   -0.4027421717
H       -0.1768596555    0.7042309386   -1.6282816244
H        2.0100148211    0.7478792850   -0.6664946493
H        1.4018280053    1.2441601786    0.9111359030
H       -0.3240795340   -1.9386661735    1.1603441270
H       -0.1296276455   -1.9275871033   -0.5925915617
13   
Iteration 9 Energy -230.80555471
C       -1.0573742637   -0.1160622147    0.1684303448
C       -0.1756879865    0.8983162870   -0.5597040608
C        1.1960584104    0.6035112713    0.0501863279
O        1.1746632846   -0.7465473602    0.4255296628
C       -0.1065273285   -1.3013427560    0.3013980259
H       -1.3271044884    0.2642434923    1.1565148840
H       -1.9766136759   -0.3640714334   -0.3620831314
H       -0.4863954515    1.9332635416   -0.4152191326
H       -0.1707047830    0.6962082928   -1.6331471155
H        2.0155787307    0.7773532136   -0.6487663072
H        1.3785334622    1.2258142890    0.9313230363
H       -0.3137325736   -1.9271726075    1.1700552742
H       -0.1506933370   -1.9435140051   -0.5845178083
13   
Iteration 10 Energy -230.80557669
C       -1.0543100690   -0.1136305254    0.1686717735
C       -0.1736176471    0.8975781170   -0.5640397690
C        1.1942210074    0.6044890626    0.0507218769
O        1.1818857430   -0.7555598476    0.3880139724
C       -0.1065173901   -1.3027210487    0.2987216425
H       -1.3194758858    0.2690494207    1.1571892346
H       -1.9774793308   -0.3597021924   -0.3560283354
H       -0.4856486060    1.9332222619   -0.4271119410
H       -0.1648789543    0.6883743861   -1.6362803359
H        2.0206912352    0.8029074336   -0.6327984992
H        1.3579382181    1.2068963482    0.9497687958
H       -0.3023052962   -1.9144544508    1.1801681498
H       -0.1705030245   -1.9564489545   -0.5769965650
13   
Iteration 11 Energy -230.80558708
C       -1.0536436466   -0.1130132558    0.1688347356
C       -0.1728415299    0.8978432236   -0.5633588108
C        1.1946787334    0.6054316855    0.0499689931
O        1.1840776500   -0.7580092294    0.3774637145
C       -0.1062641500   -1.3031179524    0.2986543593
H       -1.3225896804    0.2682729840    1.1569165531
H       -1.9764022787   -0.3585800916   -0.3572077793
H       -0.4859606636    1.9335565110   -0.4292491905
H       -0.1634620455    0.6869085566   -1.6354049763
H        2.0220413582    0.8081678449   -0.6308827539
H        1.3546487292    1.2011552018    0.9542941187
H       -0.2983896852   -1.9092682615    1.1846155816
H       -0.1758927910   -1.9593472060   -0.5746445451
13   
Iteration 12 Energy -230.80558861
C       -1.0539062475   -0.1131183585    0.1690000436
C       -0.1727814428    0.8980912628   -0.5620692875
C        1.1953445852    0.6059992488    0.0496115148
O        1.1839617922   -0.7576668000    0.3788637823
C       -0.1061903042   -1.3031052567    0.2990971551
H       -1.3259310795    0.2667828339    1.1567739213
H       -1.9754752282   -0.3587382616   -0.3592627024
H       -0.4861377641    1.9337579944   -0.4283947863
H       -0.1638435231    0.6870981619   -1.6341693831
H        2.0216564068    0.8065181937   -0.6330618920
H        1.3572243336    1.2018742034    0.9534726059
H       -0.2984537428   -1.9090370182    1.1850535655
H       -0.1754677855   -1.9584561933   -0.5749145373
13   
Iteration 13 Energy -230.80558865
C       -1.0539122005   -0.1130450000    0.1691464556
C       -0.1727751071    0.8980742940   -0.5620687111
C        1.1953066451    0.6060565916    0.0496604917
O        1.1839770591   -0.7577217762    0.3786361538
C       -0.1062019305   -1.3030846505    0.2990267628
H       -1.3258448261    0.2668298776    1.1569484631
H       -1.9754484494   -0.3586375307   -0.3591747471
H       -0.4860967844    1.9337994748   -0.4287710321
H       -0.1637014200    0.6866777097   -1.6340829849
H        2.0216303328    0.8068309907   -0.6329289758
H        1.3570873004    1.2017478578    0.9536419585
H       -0.2983579684   -1.9091111096    1.1849475149
H       -0.1756626510   -1.9584167185   -0.5749813493
