9    
Iteration 0 Energy -153.95892267
C        0.8816532133   -0.0447811770   -0.0147432422
C       -0.5817100402   -0.3757245935    0.0509849701
O       -1.3500406259    0.7580698289    0.1761578176
H        1.2650466747    0.1742135941    1.0122474654
H        1.0164929484    0.8705406294   -0.6089890567
H        1.4763580202   -0.8945496482   -0.3918501683
H       -0.7853555871   -0.9968277389    0.9683282758
H       -0.8355056267   -1.0035449398   -0.8158894614
H       -1.0869389766    1.5126040503   -0.3762465951
9    
Iteration 1 Energy -153.96463552
C        0.9108729154   -0.0401389117    0.0110805744
C       -0.5869609039   -0.3585550679    0.0616752967
O       -1.4062950435    0.7510613731    0.2055245914
H        1.3080898750    0.1970823442    0.9991218530
H        1.1011763518    0.8286051047   -0.6216586793
H        1.4881713973   -0.8786266850   -0.3761175294
H       -0.8031029868   -0.9883066125    0.9216153830
H       -0.8885900076   -0.9388410961   -0.8186727374
H       -1.1233615977    1.4277195565   -0.3825687472
9    
Iteration 2 Energy -153.96554889
C        0.9023959406   -0.0381992806    0.0174791311
C       -0.5854180473   -0.3649083495    0.0659636975
O       -1.3893298165    0.7646631546    0.2237345649
H        1.2883380930    0.2198256503    1.0025585924
H        1.0962337010    0.8096127714   -0.6449223479
H        1.4723014236   -0.8850361615   -0.3633709990
H       -0.7876889854   -1.0146416228    0.9135824484
H       -0.8730028682   -0.9244718513   -0.8317347940
H       -1.1238294408    1.4331556947   -0.3832902881
9    
Iteration 3 Energy -153.96628824
C        0.9028163013   -0.0396937133    0.0204062657
C       -0.5783903804   -0.3653512022    0.0610362505
O       -1.3717682439    0.7702821417    0.2635534103
H        1.2690095665    0.2622245462    1.0017790825
H        1.1039672963    0.7718874813   -0.6865965997
H        1.4740248495   -0.9048120899   -0.3238572546
H       -0.7834937103   -1.0385575677    0.8929481604
H       -0.8661780785   -0.8890468736   -0.8572969959
H       -1.1499876004    1.4330672829   -0.3719723138
9    
Iteration 4 Energy -153.96701167
C        0.9112111595   -0.0453297129    0.0197761152
C       -0.5678411761   -0.3594373392    0.0500592639
O       -1.3432716402    0.7753499831    0.3316851549
H        1.2457074105    0.3394732515    0.9834988405
H        1.1342767924    0.6986224491   -0.7529725609
H        1.4871311939   -0.9401878309   -0.2336029828
H       -0.7802649788   -1.0774873556    0.8430993495
H       -0.8692581875   -0.8173658286   -0.8980697667
H       -1.2176905736    1.4263623888   -0.3434734083
9    
Iteration 5 Energy -153.96719825
C        0.9171671994   -0.0482504987    0.0153255912
C       -0.5667702850   -0.3540319890    0.0467209745
O       -1.3380340745    0.7743351214    0.3489813889
H        1.2444702658    0.3595694129    0.9727265093
H        1.1501089007    0.6806068432   -0.7674024480
H        1.4945521017   -0.9508003949   -0.2015240582
H       -0.7814801369   -1.0866494592    0.8255306877
H       -0.8773315426   -0.7958524316   -0.9065132893
H       -1.2426824286    1.4210734011   -0.3338453509
9    
Iteration 6 Energy -153.96724007
C        0.9197905970   -0.0493334629    0.0126588931
C       -0.5677401679   -0.3505095195    0.0454335687
O       -1.3382207054    0.7726514687    0.3526488315
H        1.2467086536    0.3644137538    0.9677739513
H        1.1563330478    0.6776096382   -0.7694025633
H        1.4965044484   -0.9542713599   -0.1896551917
H       -0.7808100408   -1.0881522599    0.8186546747
H       -0.8827850502   -0.7906611921   -0.9076891300
H       -1.2497807824    1.4182529388   -0.3304230289
9    
Iteration 7 Energy -153.96724086
C        0.9196771974   -0.0491799084    0.0124096384
C       -0.5680071092   -0.3503482779    0.0454832290
O       -1.3389526062    0.7721149902    0.3522529711
H        1.2464543848    0.3648278958    0.9674519438
H        1.1565875792    0.6776131251   -0.7697289061
H        1.4961890984   -0.9543465801   -0.1893446018
H       -0.7807236797   -1.0883571766    0.8185909301
H       -0.8824751519   -0.7911856248   -0.9075995616
H       -1.2487497129    1.4188615621   -0.3295156374
