12   
Iteration 0 Energy -526.59360563
C       -1.4350221573    0.0375162565    0.0169546526
C       -0.7879288965   -1.1693610895   -0.0117250694
C        0.5907121966   -1.2282039232   -0.0284200019
C        1.2732847891   -0.0429861179   -0.0152198880
C        0.6201279882    1.1816249778    0.0138433129
C       -0.7579360106    1.2423489729    0.0305651381
I        3.3743981876   -0.1021540357   -0.0400977364
H       -2.5177542439    0.0611641171    0.0296663042
H       -1.3385567872   -2.1056619889   -0.0220199633
H        1.0697272550   -2.1979466209   -0.0510010994
H        1.1711056280    2.1170998950    0.0241184209
H       -1.2621579545    2.2065595462    0.0533359298
12   
Iteration 1 Energy -526.57938807
C       -1.5641840241    0.0145524028    0.0180149607
C       -0.8435623000   -1.1668949660   -0.0110499484
C        0.5544909535   -1.1404428526   -0.0264530517
C        1.3497166563   -0.0036878173   -0.0153882250
C        0.6852403189    1.2142350897    0.0136834772
C       -0.7021251298    1.1096539601    0.0275843871
I        3.4745299023   -0.1166817124   -0.0415035165
H       -2.6462621059    0.0756096106    0.0313790975
H       -1.3615645103   -2.1164709207   -0.0219542324
H        1.0522658003   -2.0981103001   -0.0490324456
H        1.2038801594    2.1623803790    0.0245537279
H       -1.2024257260    2.0658571163    0.0501657692
12   
Iteration 2 Energy -526.59478960
C       -1.5022200176    0.0259967536    0.0175138985
C       -0.8182690402   -1.1723360725   -0.0114331778
C        0.5749727634   -1.1898569346   -0.0275628918
C        1.3161726718   -0.0228752543   -0.0153507211
C        0.6545111913    1.1970465576    0.0137258797
C       -0.7334007242    1.1841920403    0.0292582738
I        3.4266719737   -0.1033799723   -0.0407143413
H       -2.5849386280    0.0677864015    0.0305458813
H       -1.3523384908   -2.1147606288   -0.0220248027
H        1.0620431832   -2.1538858357   -0.0501342729
H        1.1898021119    2.1378471296    0.0242738119
H       -1.2330069998    2.1442258052    0.0519024623
12   
Iteration 3 Energy -526.59658323
C       -1.4789092635    0.0359668119    0.0174255819
C       -0.8129048218   -1.1814602364   -0.0116553965
C        0.5816982833   -1.2202090670   -0.0281747833
C        1.3013870326   -0.0328425085   -0.0153576434
C        0.6405731800    1.1907451730    0.0137734373
C       -0.7479590284    1.2201482162    0.0300588768
I        3.4153179413   -0.0850786131   -0.0402648594
H       -2.5603459458    0.0677792156    0.0302662713
H       -1.3661558015   -2.1110153224   -0.0218029316
H        1.0854904502   -2.1756618998   -0.0507843007
H        1.1966388229    2.1163555873    0.0238178512
H       -1.2548308546    2.1752726323    0.0526978965
12   
Iteration 4 Energy -526.59659973
C       -1.4723731356    0.0368127215    0.0173659908
C       -0.8078332231   -1.1790785001   -0.0116707946
C        0.5804353384   -1.2246997613   -0.0282369663
C        1.2895416788   -0.0335348926   -0.0152320007
C        0.6412804647    1.1945038529    0.0138339227
C       -0.7456306976    1.2194336771    0.0300189853
I        3.3978771564   -0.0867142726   -0.0401047295
H       -2.5538122109    0.0651527655    0.0301441373
H       -1.3670691017   -2.1053566258   -0.0216952677
H        1.0926301200   -2.1759093777   -0.0508658496
H        1.2035648190    2.1173442252    0.0237618486
H       -1.2586112136    2.1720461773    0.0526807236
12   
Iteration 5 Energy -526.59665958
C       -1.4728128581    0.0372038083    0.0173778103
C       -0.8089208751   -1.1791456573   -0.0116596029
C        0.5785601174   -1.2202883999   -0.0281375732
C        1.2956119022   -0.0337424148   -0.0153044011
C        0.6396192841    1.1895162944    0.0137647158
C       -0.7474972909    1.2198911982    0.0300482477
I        3.4058313239   -0.0868766926   -0.0401984549
H       -2.5542302568    0.0647874241    0.0301422360
H       -1.3682843113   -2.1055639297   -0.0216852150
H        1.0908150614   -2.1712480158   -0.0507625898
H        1.2013867541    2.1125362494    0.0237019318
H       -1.2600788562    2.1729301250    0.0527128953
12   
Iteration 6 Energy -526.59666536
C       -1.4753503155    0.0373776575    0.0174092218
C       -0.8096675375   -1.1798372575   -0.0116631656
C        0.5793541022   -1.2219296580   -0.0281760237
C        1.2966121514   -0.0333035753   -0.0153084657
C        0.6404904588    1.1905692641    0.0137731611
C       -0.7476755352    1.2198121716    0.0300491915
I        3.4088180995   -0.0858511022   -0.0402139428
H       -2.5568599400    0.0654153149    0.0301825021
H       -1.3690131795   -2.1060635882   -0.0216849568
H        1.0911814003   -2.1732195685   -0.0508015703
H        1.2012050743    2.1139823803    0.0237295309
H       -1.2590947840    2.1730479507    0.0527045175
12   
Iteration 7 Energy -526.59666651
C       -1.4737397605    0.0371078928    0.0173860666
C       -0.8099183654   -1.1809840513   -0.0116805970
C        0.5784198319   -1.2212731814   -0.0281534252
C        1.2956065312   -0.0328040271   -0.0152877913
C        0.6408992663    1.1913469334    0.0137825825
C       -0.7471976821    1.2197239729    0.0300421122
I        3.4069694051   -0.0866584121   -0.0402085648
H       -2.5552073485    0.0651340058    0.0301584502
H       -1.3697600490   -2.1069863256   -0.0216931052
H        1.0913892549   -2.1719282570   -0.0507804665
H        1.2019248882    2.1146677174    0.0237342532
H       -1.2593859775    2.1726537215    0.0527004854
12   
Iteration 8 Energy -526.59666652
C       -1.4740529791    0.0376861816    0.0173998278
C       -0.8085979096   -1.1792709014   -0.0116653402
C        0.5788804924   -1.2216111537   -0.0281643022
C        1.2956447633   -0.0333412967   -0.0152973580
C        0.6402295445    1.1899206301    0.0137652326
C       -0.7477511092    1.2197156440    0.0300481369
I        3.4063066981   -0.0866460486   -0.0402018406
H       -2.5555363865    0.0648087313    0.0301562857
H       -1.3688079292   -2.1050727022   -0.0216704174
H        1.0918889926   -2.1722444178   -0.0507912494
H        1.2015287868    2.1131574957    0.0237126401
H       -1.2597329693    2.1728978271    0.0527083847
12   
Iteration 9 Energy -526.59666795
C       -1.4743091805    0.0374788546    0.0173990993
C       -0.8092422438   -1.1800146299   -0.0116711522
C        0.5788020796   -1.2215897356   -0.0281633625
C        1.2959281585   -0.0330468502   -0.0152957264
C        0.6405700620    1.1905397966    0.0137720517
C       -0.7476311642    1.2196964197    0.0300465349
I        3.4072802940   -0.0865767874   -0.0402106861
H       -2.5557954872    0.0650462449    0.0301635801
H       -1.3691543587   -2.1059660450   -0.0216819619
H        1.0915074599   -2.1723894201   -0.0507899225
H        1.2014642520    2.1139496648    0.0237268225
H       -1.2594198769    2.1728724771    0.0527047231
12   
Iteration 10 Energy -526.59666797
C       -1.4742505427    0.0374886809    0.0173986412
C       -0.8092270185   -1.1800644774   -0.0116722103
C        0.5787580540   -1.2215634401   -0.0281624381
C        1.2958915375   -0.0329954792   -0.0152944507
C        0.6406031183    1.1905554113    0.0137719088
C       -0.7476359878    1.2196826211    0.0300463365
I        3.4071747670   -0.0866462324   -0.0402105752
H       -2.5557366104    0.0650270959    0.0301626519
H       -1.3691638449   -2.1060036107   -0.0216825179
H        1.0915252114   -2.1723285216   -0.0507891042
H        1.2014775724    2.1139811133    0.0237271754
H       -1.2594162616    2.1728668283    0.0527045824
