ligandXIAP.pdb
     RDKit          3D

 41 43  0  0  1  0  0  0  0  0999 V2000
  -15.3820  -21.4355   -0.3387 C   0  0  0  0  0  0  0  0  0  0  0  0
  -15.9175  -20.1050   -0.8396 C   0  0  2  0  0  0  0  0  0  0  0  0
  -15.8932  -19.9981   -2.3676 C   0  0  0  0  0  0  0  0  0  0  0  0
  -16.3225  -18.6734   -2.8127 N   0  0  0  0  0  0  0  0  0  0  0  0
  -16.4626  -18.6029   -4.2507 C   0  0  0  0  0  0  0  0  0  0  0  0
  -15.2100  -18.9009   -5.1173 C   0  0  0  0  0  0  0  0  0  0  0  0
  -14.0955  -19.0798   -4.6477 O   0  0  0  0  0  0  0  0  0  0  0  0
  -15.4327  -18.9627   -6.4757 N   0  0  0  0  0  0  0  0  0  0  0  0
  -16.7260  -18.7047   -7.1420 C   0  0  0  0  0  0  0  0  0  0  0  0
  -16.4873  -19.0643   -8.6232 C   0  0  0  0  0  0  0  0  0  0  0  0
  -15.0082  -19.3328   -8.7014 C   0  0  0  0  0  0  0  0  0  0  0  0
  -14.2240  -19.6250   -9.8033 C   0  0  0  0  0  0  0  0  0  0  0  0
  -12.8593  -19.8420   -9.6332 C   0  0  0  0  0  0  0  0  0  0  0  0
  -12.3217  -19.7576   -8.3553 C   0  0  0  0  0  0  0  0  0  0  0  0
  -13.0705  -19.4738   -7.2247 C   0  0  0  0  0  0  0  0  0  0  0  0
  -14.4352  -19.2668   -7.4294 C   0  0  0  0  0  0  0  0  0  0  0  0
  -15.4643  -17.6222   -2.2658 C   0  0  0  0  0  0  0  0  0  0  0  0
  -15.4866  -17.6629   -0.7309 C   0  0  0  0  0  0  0  0  0  0  0  0
  -15.0810  -18.9923   -0.2345 N   0  0  0  0  0  0  0  0  0  0  0  0
  -14.3413  -21.5688   -0.6636 H   0  0  0  0  0  0  0  0  0  0  0  0
  -15.9697  -22.2714   -0.7269 H   0  0  0  0  0  0  0  0  0  0  0  0
  -15.4114  -21.4735    0.7566 H   0  0  0  0  0  0  0  0  0  0  0  0
  -16.9463  -19.9439   -0.5049 H   0  0  0  0  0  0  0  0  0  0  0  0
  -16.5855  -20.7376   -2.7868 H   0  0  0  0  0  0  0  0  0  0  0  0
  -14.8817  -20.2242   -2.7433 H   0  0  0  0  0  0  0  0  0  0  0  0
  -16.8375  -17.6015   -4.5107 H   0  0  0  0  0  0  0  0  0  0  0  0
  -17.2581  -19.3036   -4.5436 H   0  0  0  0  0  0  0  0  0  0  0  0
  -17.0078  -17.6505   -7.0262 H   0  0  0  0  0  0  0  0  0  0  0  0
  -17.5151  -19.3210   -6.6990 H   0  0  0  0  0  0  0  0  0  0  0  0
  -16.7847  -18.2490   -9.2877 H   0  0  0  0  0  0  0  0  0  0  0  0
  -17.0588  -19.9510   -8.9140 H   0  0  0  0  0  0  0  0  0  0  0  0
  -14.6687  -19.6822  -10.7943 H   0  0  0  0  0  0  0  0  0  0  0  0
  -12.2034  -20.0666  -10.4649 H   0  0  0  0  0  0  0  0  0  0  0  0
  -12.5953  -19.4124   -6.2527 H   0  0  0  0  0  0  0  0  0  0  0  0
  -15.8555  -16.6564   -2.6067 H   0  0  0  0  0  0  0  0  0  0  0  0
  -14.4326  -17.7202   -2.6434 H   0  0  0  0  0  0  0  0  0  0  0  0
  -16.5095  -17.4606   -0.4027 H   0  0  0  0  0  0  0  0  0  0  0  0
  -14.8289  -16.8963   -0.3221 H   0  0  0  0  0  0  0  0  0  0  0  0
  -15.1645  -19.0745    0.8001 H   0  0  0  0  0  0  0  0  0  0  0  0
  -14.0769  -19.1693   -0.5115 H   0  0  0  0  0  0  0  0  0  0  0  0
  -10.9992  -19.9586   -8.2101 F   0  0  0  0  0  0  0  0  0  0  0  0
  1  2  1  0
  1 20  1  0
  1 21  1  0
  1 22  1  0
  2  3  1  0
  2 19  1  0
  2 23  1  1
  3  4  1  0
  3 24  1  0
  3 25  1  0
  4  5  1  0
  4 17  1  0
  5  6  1  0
  5 26  1  0
  5 27  1  0
  6  7  2  0
  6  8  1  0
  8  9  1  0
  8 16  1  0
  9 28  1  0
  9 29  1  0
  9 10  1  0
 10 11  1  0
 10 30  1  0
 10 31  1  0
 11 12  1  0
 11 16  2  0
 12 13  2  0
 12 32  1  0
 13 14  1  0
 13 33  1  0
 14 15  2  0
 15 16  1  0
 15 34  1  0
 17 18  1  0
 17 35  1  0
 17 36  1  0
 18 19  1  0
 18 37  1  0
 18 38  1  0
 19 39  1  0
 19 40  1  0
 14 41  1  0
M  CHG  1  19   1
M  END
>  <attachment_point>  (1) 
33

>  <energies>  (1) 
[-565992.2816715902, -565994.4299681954, -565994.4299659054, -565994.4290998752, -565994.4305972352, -565994.4296604992, -565990.5355821889, -565994.4278855872, -565994.4303067409, -565994.4301746249, -565994.4298281978, -565994.4294474667, -565994.4310363635, -565994.4302213121, -565994.429379425, -565990.6262025024, -565994.4286352217, -565994.4299671625, -565994.4305144063, -565994.4314748865, -565994.4301952173, -565994.42994943, -565994.4300810902, -565994.4295458201, -565994.430179586, -565994.4295902993, -565994.4279963807, -565994.4295311932, -565994.4285691673, -565994.4312389325, -565994.4292192446, -565994.4286518858, -565994.4307248745, -565994.4284592036, -565994.4310500895, -565994.4300107192, -565990.5230019209, -565994.4307112411, -565994.4304478212, -565994.4314628772, -565994.4283834192, -565994.4304818794, -565994.4293197028, -565994.4302447145, -565990.6034600169, -565994.4303860263, -565994.4305568198, -565994.4288802112, -565994.4286848151, -565994.4279841364, -565994.4303768127, -565994.4299707526, -565994.4306344703, -565994.4296770351, -565994.4302577281, -565994.4295416069, -565994.4298161992, -565994.4284106358, -565994.4274070655, -565994.4306858943, -565994.4292628547, -565990.6595549692, -565994.4286789458, -565994.4303663314, -565994.4292685175, -565994.4290327629, -565994.430059034, -565994.4299450458, -565994.429695715, -565994.4310314951, -565994.4287175521, -565994.429904, -565994.4294652883, -565994.4288516946, -565994.4294136257, -565994.4295379778, -565994.429548021, -565994.4303196335, -565994.4297182199, -565994.4291067879, -565994.4299621267, -565994.4295626373, -565990.6465184215, -565994.4283848045, -565994.4297308382, -565994.4291209732, -565994.4301857722, -565994.4282459039, -565994.4309855807, -565994.4303246551, -565994.428549889, -565994.4301957088, -565994.4297961126, -565994.4287528106, -565994.4292053407, -565994.4295224533, -565994.4318095963, -565994.43065247, -565994.430675071, -565994.4302334639, -565994.4303439618, -565994.4292494565, -565994.4297258094, -565994.4300437875, -565994.4307688514, -565994.4287474114, -565994.4305292291, -565994.4304487329, -565994.4298448049, -565990.6245508745, -565994.4308416976, -565994.4285421749, -565994.4322157527, -565994.4288911306, -565994.428489216, -565994.4291856352, -565994.431046236, -565990.6623983282, -565994.4304854587, -565994.4307446763, -565994.4292529325, -565994.4294417684, -565994.4296365093, -565994.429576844, -565994.429598601, -565994.4306279635, -565994.4300503405, -565994.4305437598, -565994.4308028776, -565994.4293613969, -565994.4313342727, -565994.4308925411, -565994.4291358102, -565994.4281920937, -565994.430226779, -565990.6027367441, -565994.4307408333, -565994.4284466315, -565994.4282491769, -565994.430977895, -565994.4293872495, -565994.4285599431, -565994.4290838485, -565990.6328209748, -565994.4279989557, -565994.4292715163, -565994.4291109833, -565994.4298686668, -565994.4297089316, -565994.430531455, -565990.6363665254, -565994.4284400642, -565994.4307521447, -565994.4279789331, -565994.4313969617, -565994.4300159332, -565994.4302379834, -565994.4307444198, -565994.428113243, -565994.4306049636, -565994.4296838375, -565994.429743371, -565994.4276962135, -565994.4298237282, -565994.4282553453, -565994.4300987729, -565990.6087672951, -565994.4283202316, -565994.4299780892, -565994.4299049367, -565994.4316335781, -565994.4304777482, -565994.428583634, -565994.429953312, -565994.429134115, -565994.4312177915, -565994.4304614651, -565994.4288068593, -565994.4295298007, -565994.4305127929, -565994.4305394007, -565994.4300247193, -565994.4283488658, -565994.429031114, -565994.4284763484, -565994.4301656714, -565994.4298641188, -565994.4298059315, -565994.4295840773, -565994.4293308288, -565994.4284809071, -565994.430230864, -565994.4276379338, -565994.4288778036, -565994.429027695, -565994.429839648, -565994.4300394816, -565994.4276420864, -565994.428938174, -565990.5995520131, -565994.4295898041]

>  <index>  (1) 
3

>  <Smiles>  (1) 
[H]c1c([H])c2c(c([H])c1F)N(C(=O)C([H])([H])N1C([H])([H])C([H])([H])[N+]([H])([H])[C@]([H])(C([H])([H])[H])C1([H])[H])C([H])([H])C2([H])[H]

>  <score>  (1) 
<NA>

>  <h>  (1) 
33

>  <Training>  (1) 
False

>  <Success>  (1) 
nan

>  <enamine_searched>  (1) 
False

>  <enamine_id>  (1) 
nan

$$$$
