ligandXIAP.pdb
     RDKit          3D

 41 43  0  0  1  0  0  0  0  0999 V2000
  -15.3375  -21.4936   -0.1964 C   0  0  0  0  0  0  0  0  0  0  0  0
  -15.8769  -20.1589   -0.6894 C   0  0  2  0  0  0  0  0  0  0  0  0
  -15.8792  -20.0784   -2.2350 C   0  0  0  0  0  0  0  0  0  0  0  0
  -16.2665  -18.7259   -2.7242 N   0  0  0  0  0  0  0  0  0  0  0  0
  -16.4948  -18.6185   -4.2059 C   0  0  0  0  0  0  0  0  0  0  0  0
  -15.3464  -19.0096   -5.1878 C   0  0  0  0  0  0  0  0  0  0  0  0
  -14.2383  -19.3664   -4.7823 O   0  0  0  0  0  0  0  0  0  0  0  0
  -15.5516  -18.9674   -6.5714 N   0  0  0  0  0  0  0  0  0  0  0  0
  -16.8477  -18.8049   -7.2345 C   0  0  0  0  0  0  0  0  0  0  0  0
  -16.5890  -19.1675   -8.7094 C   0  0  0  0  0  0  0  0  0  0  0  0
  -15.1024  -19.3250   -8.7655 C   0  0  0  0  0  0  0  0  0  0  0  0
  -14.2910  -19.5666   -9.8764 C   0  0  0  0  0  0  0  0  0  0  0  0
  -12.8998  -19.6301   -9.7026 C   0  0  0  0  0  0  0  0  0  0  0  0
  -12.3329  -19.4464   -8.4305 C   0  0  0  0  0  0  0  0  0  0  0  0
  -13.1671  -19.2298   -7.3295 C   0  0  0  0  0  0  0  0  0  0  0  0
  -14.5489  -19.1797   -7.5083 C   0  0  0  0  0  0  0  0  0  0  0  0
  -15.4382  -17.6658   -2.0877 C   0  0  0  0  0  0  0  0  0  0  0  0
  -15.4333  -17.7934   -0.5444 C   0  0  0  0  0  0  0  0  0  0  0  0
  -15.0000  -19.1395   -0.0875 N   0  0  0  0  0  0  0  0  0  0  0  0
  -15.8238  -22.3222   -0.7148 H   0  0  0  0  0  0  0  0  0  0  0  0
  -15.5219  -21.5948    0.8762 H   0  0  0  0  0  0  0  0  0  0  0  0
  -14.2591  -21.5547   -0.3697 H   0  0  0  0  0  0  0  0  0  0  0  0
  -16.9140  -20.0205   -0.3537 H   0  0  0  0  0  0  0  0  0  0  0  0
  -16.5774  -20.8255   -2.6261 H   0  0  0  0  0  0  0  0  0  0  0  0
  -14.8728  -20.3203   -2.5958 H   0  0  0  0  0  0  0  0  0  0  0  0
  -16.7776  -17.5840   -4.4349 H   0  0  0  0  0  0  0  0  0  0  0  0
  -17.3527  -19.2516   -4.4597 H   0  0  0  0  0  0  0  0  0  0  0  0
  -17.1982  -17.7703   -7.1571 H   0  0  0  0  0  0  0  0  0  0  0  0
  -17.6106  -19.4659   -6.8121 H   0  0  0  0  0  0  0  0  0  0  0  0
  -16.9208  -18.3653   -9.3788 H   0  0  0  0  0  0  0  0  0  0  0  0
  -17.0940  -20.1035   -8.9735 H   0  0  0  0  0  0  0  0  0  0  0  0
  -14.7478  -19.6930  -10.8532 H   0  0  0  0  0  0  0  0  0  0  0  0
  -12.2594  -19.8120  -10.5572 H   0  0  0  0  0  0  0  0  0  0  0  0
  -12.7519  -19.0780   -6.3394 H   0  0  0  0  0  0  0  0  0  0  0  0
  -15.8239  -16.6783   -2.3631 H   0  0  0  0  0  0  0  0  0  0  0  0
  -14.4062  -17.7438   -2.4468 H   0  0  0  0  0  0  0  0  0  0  0  0
  -16.4511  -17.5939   -0.1849 H   0  0  0  0  0  0  0  0  0  0  0  0
  -14.7688  -17.0259   -0.1314 H   0  0  0  0  0  0  0  0  0  0  0  0
  -15.0569  -19.2125    0.9385 H   0  0  0  0  0  0  0  0  0  0  0  0
  -14.0282  -19.3149   -0.3713 H   0  0  0  0  0  0  0  0  0  0  0  0
  -10.4410  -19.4643   -8.1762 Br  0  0  0  0  0  0  0  0  0  0  0  0
  1  2  1  0
  1 20  1  0
  1 21  1  0
  1 22  1  0
  2  3  1  0
  2 19  1  0
  2 23  1  1
  3  4  1  0
  3 24  1  0
  3 25  1  0
  4  5  1  0
  4 17  1  0
  5  6  1  0
  5 26  1  0
  5 27  1  0
  6  7  2  0
  6  8  1  0
  8  9  1  0
  8 16  1  0
  9 28  1  0
  9 29  1  0
  9 10  1  0
 10 11  1  0
 10 30  1  0
 10 31  1  0
 11 12  1  0
 11 16  2  0
 12 13  2  0
 12 32  1  0
 13 14  1  0
 13 33  1  0
 14 15  2  0
 15 16  1  0
 15 34  1  0
 17 18  1  0
 17 35  1  0
 17 36  1  0
 18 19  1  0
 18 37  1  0
 18 38  1  0
 19 39  1  0
 19 40  1  0
 14 41  1  0
M  CHG  1  19   1
M  END
>  <attachment_point>  (1) 
33

>  <energies>  (1) 
[13583.213676819147, 13583.488228347564, 13583.488458331556, 13583.48841142506, 13583.48815101056, 13588.99735435348, 13583.48806175428, 13583.48872318851, 13583.488931244843, 13583.488777082997, 13583.488767663199, 13583.488143996086, 13583.487999310926, 13583.488418984714, 13583.48849223073, 13583.488379119768, 13583.488445358795, 13583.48818142275, 13588.88133439027, 13583.488239356708, 13583.488578182163, 13583.48774286691, 13583.48810601005, 13588.993636122967, 13588.880415177058, 13583.48825410023, 13583.488635596492, 13583.488808296037, 13583.488409096903, 13583.488195490921, 13583.48812795602, 13583.488620561786, 13583.488135029724, 13583.488284319892, 13583.48859550458, 13583.487279624605, 13583.488265325535, 13583.48881566606, 13583.488854636586, 13583.487901753646, 13583.488478151106, 13583.48805711211, 13583.48771823624, 13583.488481600763, 13583.488094649623, 13588.876121956637, 13583.488387977004, 13583.48815920784, 13588.879953010843, 13583.488604995422, 13583.488247804826, 13583.488631563821, 13583.48861113642, 13583.488507580161, 13583.48866924585, 13583.48844073373, 13583.488562433367, 13583.4882156362, 13583.487942275204, 13588.881890264885, 13583.488377069265, 13583.488851549097, 13583.488465537715, 13583.488039062064, 13583.48852895949, 13583.488324060881, 13583.487673966387, 13588.879830531036, 13588.87764560245, 13583.488733812539, 13583.488511680676, 13583.487332665023, 13583.487912589973, 13583.488363394017, 13588.139666324047, 13583.48840663778, 13583.488086861538, 13583.488633751826, 13583.487853637813, 13583.48867720751, 13583.48756610129, 13583.488292249509, 13588.882813320359, 13583.488459089702, 13583.4886133807, 13583.488440465493, 13583.488667106463, 13583.488521266087, 13588.850322378974, 13583.488639284988, 13583.48795060371, 13583.488212625254, 13583.488480531032, 13583.488225774941, 13583.488654769517, 13588.866103253302, 13583.488418954368, 13583.488852759947, 13583.488285997017, 13583.488642761866, 13583.487930820955, 13583.488572690218, 13583.487962740317, 13583.488562710862, 13583.488635301748, 13583.488743103057, 13583.488035803146, 13588.881795107784, 13583.488257808573, 13588.864997557588, 13583.488424297018, 13583.488257403671, 13583.488183278287, 13583.489203503215, 13583.488195165031, 13583.487632083465, 13583.48560519282, 13583.488591501784, 13583.489143593239, 13583.48858197603, 13583.488148085995, 13583.488597822849, 13583.48807128372, 13588.88173027809, 13583.488135247037, 13583.488416393457, 13583.487984798583, 13583.48860518728, 13588.992691759657, 13583.488451156467, 13583.488593953329, 13583.488664242568, 13583.48873573184, 13583.488812482074, 13583.487750942464, 13583.488408890222, 13583.48825219459, 13583.489087287538, 13583.488276438862, 13583.488240847844, 13583.488288422319, 13583.488318812066, 13583.487775702682, 13583.487739205886, 13583.488603519752, 13583.487973818123, 13583.4891138116, 13583.487936553116, 13583.487917432782, 13583.488379994646, 13583.488590714196, 13583.48851655408, 13583.488723084529, 13583.488524108145, 13583.48695120557, 13583.488511283767, 13583.488651304475, 13583.487879100665, 13583.48777120013, 13583.48853856029, 13588.994673332669, 13583.488877678106, 13583.488781632368, 13583.488417373155, 13583.48857012416, 13583.4884641962, 13583.488280946507, 13583.488672992222, 13583.487567432465, 13583.487924751773, 13583.48853332618, 13583.488427002196, 13583.488387082522, 13583.487846157033, 13588.994466813358, 13583.487881234427, 13583.488525436085, 13583.488260669323, 13583.488054409198, 13583.48851322217, 13583.488308003389, 13583.488482721954, 13583.488104481634, 13588.993670476375, 13583.487808205236, 13583.488861779855, 13583.488552478668, 13583.488623754054, 13583.489115114957, 13583.48885033446, 13583.488126258282, 13583.488537028165, 13583.487722962054, 13583.488527128153, 13588.993332710028, 13588.880793046032, 13583.48800706275, 13583.488391624369, 13583.488516254349, 13583.488295989455, 13583.48811968071]

>  <index>  (1) 
4

>  <Smiles>  (1) 
[H]c1c([H])c2c(c([H])c1Br)N(C(=O)C([H])([H])N1C([H])([H])C([H])([H])[N+]([H])([H])[C@]([H])(C([H])([H])[H])C1([H])[H])C([H])([H])C2([H])[H]

>  <score>  (1) 
<NA>

>  <h>  (1) 
33

>  <Training>  (1) 
False

>  <Success>  (1) 
nan

>  <enamine_searched>  (1) 
False

>  <enamine_id>  (1) 
nan

$$$$
