in.pdb
     RDKit          3D

 58 61  0  0  1  0  0  0  0  0999 V2000
    8.1212    1.1676   15.9804 C   0  0  0  0  0  0  0  0  0  0  0  0
    8.8072    0.2356   15.1937 C   0  0  0  0  0  0  0  0  0  0  0  0
   10.0621   -0.2262   15.5866 C   0  0  0  0  0  0  0  0  0  0  0  0
   10.6553    0.2312   16.7529 C   0  0  0  0  0  0  0  0  0  0  0  0
    9.9700    1.1516   17.5372 C   0  0  0  0  0  0  0  0  0  0  0  0
    8.7125    1.6308   17.1763 C   0  0  0  0  0  0  0  0  0  0  0  0
    8.0432    2.6277   18.0652 C   0  0  0  0  0  0  0  0  0  0  0  0
    8.1409    4.0016   17.8289 C   0  0  0  0  0  0  0  0  0  0  0  0
    7.5501    4.8959   18.7079 C   0  0  0  0  0  0  0  0  0  0  0  0
    7.3380    2.2426   19.2027 C   0  0  0  0  0  0  0  0  0  0  0  0
    6.7077    3.0840   20.0308 N   0  0  0  0  0  0  0  0  0  0  0  0
    6.8378    4.3885   19.7988 C   0  0  0  0  0  0  0  0  0  0  0  0
    6.1804    5.2725   20.6880 N   0  0  0  0  0  0  0  0  0  0  0  0
    6.7844    6.4047   21.2050 C   0  0  0  0  0  0  0  0  0  0  0  0
    7.9395    6.7341   21.0369 O   0  0  0  0  0  0  0  0  0  0  0  0
    4.8019    5.1085   21.1561 C   0  0  0  0  0  0  0  0  0  0  0  0
    4.4114    6.5436   21.5394 C   0  0  0  0  0  0  0  0  0  0  0  0
    5.7287    7.1701   22.0129 C   0  0  2  0  0  0  0  0  0  0  0  0
    5.8105    8.5981   21.7494 N   0  0  0  0  0  0  0  0  0  0  0  0
    6.3390    9.7148   22.8665 S   0  0  0  0  0  0  0  0  0  0  0  0
    5.4141    9.6932   23.9880 O   0  0  0  0  0  0  0  0  0  0  0  0
    6.5608   10.9275   22.1037 O   0  0  0  0  0  0  0  0  0  0  0  0
    7.9159    9.1306   23.4306 C   0  0  0  0  0  0  0  0  0  0  0  0
    8.0561    8.6894   24.6901 C   0  0  0  0  0  0  0  0  0  0  0  0
    9.2991    8.2246   25.2943 C   0  0  0  0  0  0  0  0  0  0  0  0
   10.8485    8.4176   24.5277 S   0  0  0  0  0  0  0  0  0  0  0  0
    9.4336    7.5815   26.5012 C   0  0  0  0  0  0  0  0  0  0  0  0
   10.7788    7.2376   26.8240 C   0  0  0  0  0  0  0  0  0  0  0  0
   11.6405    7.6352   25.8464 C   0  0  0  0  0  0  0  0  0  0  0  0
   13.3450    7.4210   25.8293 Cl  0  0  0  0  0  0  0  0  0  0  0  0
    8.3797   -0.1538   14.2748 H   0  0  0  0  0  0  0  0  0  0  0  0
   10.5815   -0.9550   14.9703 H   0  0  0  0  0  0  0  0  0  0  0  0
   11.6413   -0.1152   17.0489 H   0  0  0  0  0  0  0  0  0  0  0  0
   10.4238    1.5259   18.4503 H   0  0  0  0  0  0  0  0  0  0  0  0
    8.6983    4.3606   16.9647 H   0  0  0  0  0  0  0  0  0  0  0  0
    7.6124    5.9644   18.5453 H   0  0  0  0  0  0  0  0  0  0  0  0
    7.2608    1.1898   19.4612 H   0  0  0  0  0  0  0  0  0  0  0  0
    4.1741    4.6826   20.3648 H   0  0  0  0  0  0  0  0  0  0  0  0
    4.7647    4.4241   22.0161 H   0  0  0  0  0  0  0  0  0  0  0  0
    3.6310    6.5855   22.3009 H   0  0  0  0  0  0  0  0  0  0  0  0
    4.0466    7.1003   20.6700 H   0  0  0  0  0  0  0  0  0  0  0  0
    5.8811    6.9706   23.0773 H   0  0  0  0  0  0  0  0  0  0  0  0
    6.2054    8.8172   20.8394 H   0  0  0  0  0  0  0  0  0  0  0  0
    8.7081    9.1945   22.6847 H   0  0  0  0  0  0  0  0  0  0  0  0
    7.1704    8.6660   25.3227 H   0  0  0  0  0  0  0  0  0  0  0  0
    8.5830    7.3440   27.1340 H   0  0  0  0  0  0  0  0  0  0  0  0
   11.0792    6.7182   27.7312 H   0  0  0  0  0  0  0  0  0  0  0  0
    6.8718    1.6521   15.7108 O   0  0  0  0  0  0  0  0  0  0  0  0
    6.2052    1.3700   14.4711 C   0  0  0  0  0  0  0  0  0  0  0  0
    4.7465    1.7538   14.6666 C   0  0  0  0  0  0  0  0  0  0  0  0
    6.8103    2.1455   13.3110 C   0  0  0  0  0  0  0  0  0  0  0  0
    6.2784    0.2939   14.2566 H   0  0  0  0  0  0  0  0  0  0  0  0
    4.1931    1.5526   13.7436 H   0  0  0  0  0  0  0  0  0  0  0  0
    4.2783    1.1889   15.4785 H   0  0  0  0  0  0  0  0  0  0  0  0
    4.6583    2.8263   14.8772 H   0  0  0  0  0  0  0  0  0  0  0  0
    6.7836    3.2239   13.5095 H   0  0  0  0  0  0  0  0  0  0  0  0
    6.2406    1.9600   12.3930 H   0  0  0  0  0  0  0  0  0  0  0  0
    7.8387    1.8193   13.1429 H   0  0  0  0  0  0  0  0  0  0  0  0
  1  6  2  0
  2  3  2  0
  2  1  1  0
  2 31  1  0
  3  4  1  0
  3 32  1  0
  4  5  2  0
  4 33  1  0
  5 34  1  0
  6  5  1  0
  6  7  1  0
  7 10  1  0
  8  7  2  0
  8  9  1  0
  8 35  1  0
  9 12  2  0
  9 36  1  0
 10 11  2  0
 10 37  1  0
 12 11  1  0
 12 13  1  0
 13 16  1  0
 13 14  1  0
 14 18  1  0
 15 14  2  0
 16 17  1  0
 16 38  1  0
 16 39  1  0
 17 18  1  0
 17 40  1  0
 17 41  1  0
 18 42  1  1
 19 18  1  0
 19 20  1  0
 19 43  1  0
 20 23  1  0
 20 22  2  0
 21 20  2  0
 23 24  2  0
 23 44  1  0
 24 25  1  0
 24 45  1  0
 25 27  2  0
 26 25  1  0
 26 29  1  0
 27 28  1  0
 27 46  1  0
 28 47  1  0
 29 28  2  0
 30 29  1  0
 48 49  1  0
 49 50  1  0
 49 51  1  0
 49 52  1  0
 50 53  1  0
 50 54  1  0
 50 55  1  0
 51 56  1  0
 51 57  1  0
 51 58  1  0
  1 48  1  0
M  END
>  <attachment_point>  (1) 
30

>  <energies>  (1) 
[-1618069.945740843, -1618073.510231187, -1618074.8579603794, -1618073.5106340027, -1618074.8581313116, -1618073.3857853392, -1618032.216933864]

>  <index>  (1) 
6

>  <Smiles>  (1) 
[H]/C(=C(/[H])S(=O)(=O)N([H])[C@]1([H])C(=O)N(c2nc([H])c(-c3c([H])c([H])c([H])c([H])c3OC([H])(C([H])([H])[H])C([H])([H])[H])c([H])c2[H])C([H])([H])C1([H])[H])c1sc(Cl)c([H])c1[H]

>  <score>  (1) 
<NA>

>  <h>  (1) 
30

>  <Training>  (1) 
False

>  <Success>  (1) 
nan

>  <enamine_searched>  (1) 
False

>  <enamine_id>  (1) 
nan

$$$$
