in.pdb
     RDKit          3D

 51 54  0  0  1  0  0  0  0  0999 V2000
    8.2598    1.1657   16.0615 C   0  0  0  0  0  0  0  0  0  0  0  0
    9.0067    0.2737   15.2966 C   0  0  0  0  0  0  0  0  0  0  0  0
   10.2558   -0.1590   15.7227 C   0  0  0  0  0  0  0  0  0  0  0  0
   10.7655    0.3001   16.9297 C   0  0  0  0  0  0  0  0  0  0  0  0
   10.0344    1.2073   17.6865 C   0  0  0  0  0  0  0  0  0  0  0  0
    8.7896    1.6707   17.2546 C   0  0  0  0  0  0  0  0  0  0  0  0
    8.1328    2.6949   18.1154 C   0  0  0  0  0  0  0  0  0  0  0  0
    8.4713    4.0484   18.0195 C   0  0  0  0  0  0  0  0  0  0  0  0
    7.9447    4.9612   18.9182 C   0  0  0  0  0  0  0  0  0  0  0  0
    7.2591    2.3293   19.1273 C   0  0  0  0  0  0  0  0  0  0  0  0
    6.6661    3.1976   19.9492 N   0  0  0  0  0  0  0  0  0  0  0  0
    7.0182    4.4821   19.8571 C   0  0  0  0  0  0  0  0  0  0  0  0
    6.3297    5.3552   20.7176 N   0  0  0  0  0  0  0  0  0  0  0  0
    6.8250    6.5279   21.2631 C   0  0  0  0  0  0  0  0  0  0  0  0
    7.9367    6.9867   21.1073 O   0  0  0  0  0  0  0  0  0  0  0  0
    4.9895    5.0331   21.2087 C   0  0  0  0  0  0  0  0  0  0  0  0
    4.4553    6.3943   21.6482 C   0  0  0  0  0  0  0  0  0  0  0  0
    5.7052    7.1457   22.1101 C   0  0  2  0  0  0  0  0  0  0  0  0
    5.5959    8.5840   21.9200 N   0  0  0  0  0  0  0  0  0  0  0  0
    6.2037    9.6553   23.0431 S   0  0  0  0  0  0  0  0  0  0  0  0
    6.3717   10.8996   22.3199 O   0  0  0  0  0  0  0  0  0  0  0  0
    5.3726    9.6044   24.2333 O   0  0  0  0  0  0  0  0  0  0  0  0
    7.7947    8.9938   23.4408 C   0  0  0  0  0  0  0  0  0  0  0  0
    8.0256    8.5765   24.6935 C   0  0  0  0  0  0  0  0  0  0  0  0
    9.2782    8.1085   25.2518 C   0  0  0  0  0  0  0  0  0  0  0  0
   10.7811    8.1473   24.3925 S   0  0  0  0  0  0  0  0  0  0  0  0
    9.4490    7.6106   26.5197 C   0  0  0  0  0  0  0  0  0  0  0  0
   10.7957    7.2779   26.8223 C   0  0  0  0  0  0  0  0  0  0  0  0
   11.6176    7.5220   25.7647 C   0  0  0  0  0  0  0  0  0  0  0  0
   13.3165    7.2700   25.7089 Cl  0  0  0  0  0  0  0  0  0  0  0  0
    8.5903   -0.0751   14.3594 H   0  0  0  0  0  0  0  0  0  0  0  0
   10.8245   -0.8511   15.1089 H   0  0  0  0  0  0  0  0  0  0  0  0
   11.7363   -0.0412   17.2795 H   0  0  0  0  0  0  0  0  0  0  0  0
   10.4133    1.5765   18.6353 H   0  0  0  0  0  0  0  0  0  0  0  0
    9.1432    4.3792   17.2274 H   0  0  0  0  0  0  0  0  0  0  0  0
    8.2319    6.0078   18.8973 H   0  0  0  0  0  0  0  0  0  0  0  0
    7.0001    1.2796   19.2628 H   0  0  0  0  0  0  0  0  0  0  0  0
    5.0461    4.3088   22.0334 H   0  0  0  0  0  0  0  0  0  0  0  0
    4.3986    4.5827   20.4060 H   0  0  0  0  0  0  0  0  0  0  0  0
    3.6999    6.3228   22.4338 H   0  0  0  0  0  0  0  0  0  0  0  0
    4.0152    6.9126   20.7887 H   0  0  0  0  0  0  0  0  0  0  0  0
    5.9119    6.9211   23.1625 H   0  0  0  0  0  0  0  0  0  0  0  0
    5.8712    8.8949   20.9891 H   0  0  0  0  0  0  0  0  0  0  0  0
    8.4758    8.9526   22.5920 H   0  0  0  0  0  0  0  0  0  0  0  0
    7.2060    8.6019   25.4072 H   0  0  0  0  0  0  0  0  0  0  0  0
    8.6210    7.4793   27.2069 H   0  0  0  0  0  0  0  0  0  0  0  0
   11.1397    6.8871   27.7736 H   0  0  0  0  0  0  0  0  0  0  0  0
    6.8707    1.4967   15.5573 C   0  0  0  0  0  0  0  0  0  0  0  0
    6.3649    2.6388   16.0491 F   0  0  0  0  0  0  0  0  0  0  0  0
    5.9933    0.5192   15.8625 F   0  0  0  0  0  0  0  0  0  0  0  0
    6.8574    1.6100   14.2155 F   0  0  0  0  0  0  0  0  0  0  0  0
  1  6  2  0
  2  3  2  0
  2  1  1  0
  2 31  1  0
  3  4  1  0
  3 32  1  0
  4  5  2  0
  4 33  1  0
  5 34  1  0
  6  5  1  0
  6  7  1  0
  7 10  1  0
  8  7  2  0
  8  9  1  0
  8 35  1  0
  9 12  2  0
  9 36  1  0
 10 11  2  0
 10 37  1  0
 12 11  1  0
 12 13  1  0
 13 16  1  0
 13 14  1  0
 14 18  1  0
 15 14  2  0
 16 17  1  0
 16 38  1  0
 16 39  1  0
 17 18  1  0
 17 40  1  0
 17 41  1  0
 18 42  1  1
 19 18  1  0
 19 20  1  0
 19 43  1  0
 20 23  1  0
 20 22  2  0
 21 20  2  0
 23 24  2  0
 23 44  1  0
 24 25  1  0
 24 45  1  0
 25 27  2  0
 26 25  1  0
 26 29  1  0
 27 28  1  0
 27 46  1  0
 28 47  1  0
 29 28  2  0
 30 29  1  0
 48 49  1  0
 48 50  1  0
 48 51  1  0
  1 48  1  0
M  END
>  <attachment_point>  (1) 
30

>  <energies>  (1) 
[-1708357.3045077552, -1708354.1957570266, -1708349.3910759904, -1708354.1954324206, -1708354.1958868953, -1708354.1957801192, -1708354.1955237365]

>  <index>  (1) 
1

>  <Smiles>  (1) 
[H]/C(=C(/[H])S(=O)(=O)N([H])[C@]1([H])C(=O)N(c2nc([H])c(-c3c([H])c([H])c([H])c([H])c3C(F)(F)F)c([H])c2[H])C([H])([H])C1([H])[H])c1sc(Cl)c([H])c1[H]

>  <score>  (1) 
<NA>

>  <h>  (1) 
30

>  <Training>  (1) 
False

>  <Success>  (1) 
nan

>  <enamine_searched>  (1) 
False

>  <enamine_id>  (1) 
nan

$$$$
