in.pdb
     RDKit          3D

 60 63  0  0  1  0  0  0  0  0999 V2000
    8.4584    1.2503   16.0641 C   0  0  0  0  0  0  0  0  0  0  0  0
    9.2353    0.3119   15.3725 C   0  0  0  0  0  0  0  0  0  0  0  0
   10.4445   -0.1653   15.8639 C   0  0  0  0  0  0  0  0  0  0  0  0
   10.9231    0.2815   17.0841 C   0  0  0  0  0  0  0  0  0  0  0  0
   10.1800    1.2189   17.7860 C   0  0  0  0  0  0  0  0  0  0  0  0
    8.9684    1.7137   17.2997 C   0  0  0  0  0  0  0  0  0  0  0  0
    8.3420    2.7172   18.2058 C   0  0  0  0  0  0  0  0  0  0  0  0
    8.7380    4.0580   18.2080 C   0  0  0  0  0  0  0  0  0  0  0  0
    8.1279    4.9530   19.0683 C   0  0  0  0  0  0  0  0  0  0  0  0
    7.4532    2.3249   19.1973 C   0  0  0  0  0  0  0  0  0  0  0  0
    6.8069    3.1679   20.0025 N   0  0  0  0  0  0  0  0  0  0  0  0
    7.1467    4.4569   19.9412 C   0  0  0  0  0  0  0  0  0  0  0  0
    6.4100    5.3209   20.7732 N   0  0  0  0  0  0  0  0  0  0  0  0
    6.8698    6.4975   21.3452 C   0  0  0  0  0  0  0  0  0  0  0  0
    7.9927    6.9477   21.2605 O   0  0  0  0  0  0  0  0  0  0  0  0
    5.0465    4.9942   21.1898 C   0  0  0  0  0  0  0  0  0  0  0  0
    4.4861    6.3534   21.6086 C   0  0  0  0  0  0  0  0  0  0  0  0
    5.7023    7.1196   22.1324 C   0  0  2  0  0  0  0  0  0  0  0  0
    5.5742    8.5609   21.9452 N   0  0  0  0  0  0  0  0  0  0  0  0
    6.1799    9.6632   23.0442 S   0  0  0  0  0  0  0  0  0  0  0  0
    6.3452   10.8808   22.2685 O   0  0  0  0  0  0  0  0  0  0  0  0
    5.3562    9.6524   24.2400 O   0  0  0  0  0  0  0  0  0  0  0  0
    7.7798    9.0215   23.4576 C   0  0  0  0  0  0  0  0  0  0  0  0
    8.0261    8.5951   24.7056 C   0  0  0  0  0  0  0  0  0  0  0  0
    9.2937    8.1396   25.2513 C   0  0  0  0  0  0  0  0  0  0  0  0
   10.8078    8.1934   24.4080 S   0  0  0  0  0  0  0  0  0  0  0  0
    9.4561    7.6246   26.5116 C   0  0  0  0  0  0  0  0  0  0  0  0
   10.7961    7.2730   26.8199 C   0  0  0  0  0  0  0  0  0  0  0  0
   11.6287    7.5293   25.7740 C   0  0  0  0  0  0  0  0  0  0  0  0
   13.3249    7.2574   25.7279 Cl  0  0  0  0  0  0  0  0  0  0  0  0
    8.8957   -0.0741   14.4174 H   0  0  0  0  0  0  0  0  0  0  0  0
   11.0143   -0.8819   15.2761 H   0  0  0  0  0  0  0  0  0  0  0  0
   11.8638   -0.0909   17.4794 H   0  0  0  0  0  0  0  0  0  0  0  0
   10.5363    1.5802   18.7457 H   0  0  0  0  0  0  0  0  0  0  0  0
    9.4881    4.4003   17.4947 H   0  0  0  0  0  0  0  0  0  0  0  0
    8.3891    6.0036   19.0665 H   0  0  0  0  0  0  0  0  0  0  0  0
    7.1936    1.2708   19.2960 H   0  0  0  0  0  0  0  0  0  0  0  0
    5.0601    4.2610   22.0080 H   0  0  0  0  0  0  0  0  0  0  0  0
    4.4925    4.5518   20.3569 H   0  0  0  0  0  0  0  0  0  0  0  0
    3.6919    6.2788   22.3540 H   0  0  0  0  0  0  0  0  0  0  0  0
    4.0888    6.8756   20.7305 H   0  0  0  0  0  0  0  0  0  0  0  0
    5.8654    6.9052   23.1951 H   0  0  0  0  0  0  0  0  0  0  0  0
    5.7924    8.8887   21.0080 H   0  0  0  0  0  0  0  0  0  0  0  0
    8.4657    8.9979   22.6124 H   0  0  0  0  0  0  0  0  0  0  0  0
    7.2141    8.5837   25.4303 H   0  0  0  0  0  0  0  0  0  0  0  0
    8.6187    7.4988   27.1876 H   0  0  0  0  0  0  0  0  0  0  0  0
   11.1198    6.8546   27.7664 H   0  0  0  0  0  0  0  0  0  0  0  0
    7.1071    1.7325   15.4836 C   0  0  0  0  0  0  0  0  0  0  0  0
    7.0579    3.2607   15.3236 C   0  0  0  0  0  0  0  0  0  0  0  0
    5.9352    1.3086   16.3860 C   0  0  0  0  0  0  0  0  0  0  0  0
    6.8452    1.1458   14.0829 C   0  0  0  0  0  0  0  0  0  0  0  0
    6.0616    3.5370   14.9578 H   0  0  0  0  0  0  0  0  0  0  0  0
    7.7983    3.6050   14.5892 H   0  0  0  0  0  0  0  0  0  0  0  0
    7.2083    3.7776   16.2730 H   0  0  0  0  0  0  0  0  0  0  0  0
    5.9290    1.8141   17.3529 H   0  0  0  0  0  0  0  0  0  0  0  0
    5.9454    0.2303   16.5540 H   0  0  0  0  0  0  0  0  0  0  0  0
    4.9881    1.5615   15.8975 H   0  0  0  0  0  0  0  0  0  0  0  0
    6.7702    0.0508   14.0875 H   0  0  0  0  0  0  0  0  0  0  0  0
    7.6282    1.4458   13.3740 H   0  0  0  0  0  0  0  0  0  0  0  0
    5.8940    1.5329   13.7033 H   0  0  0  0  0  0  0  0  0  0  0  0
  1  6  2  0
  2  3  2  0
  2  1  1  0
  2 31  1  0
  3  4  1  0
  3 32  1  0
  4  5  2  0
  4 33  1  0
  5 34  1  0
  6  5  1  0
  6  7  1  0
  7 10  1  0
  8  7  2  0
  8  9  1  0
  8 35  1  0
  9 12  2  0
  9 36  1  0
 10 11  2  0
 10 37  1  0
 12 11  1  0
 12 13  1  0
 13 16  1  0
 13 14  1  0
 14 18  1  0
 15 14  2  0
 16 17  1  0
 16 38  1  0
 16 39  1  0
 17 18  1  0
 17 40  1  0
 17 41  1  0
 18 42  1  1
 19 18  1  0
 19 20  1  0
 19 43  1  0
 20 23  1  0
 20 22  2  0
 21 20  2  0
 23 24  2  0
 23 44  1  0
 24 25  1  0
 24 45  1  0
 25 27  2  0
 26 25  1  0
 26 29  1  0
 27 28  1  0
 27 46  1  0
 28 47  1  0
 29 28  2  0
 30 29  1  0
 48 49  1  0
 48 50  1  0
 48 51  1  0
 49 52  1  0
 49 53  1  0
 49 54  1  0
 50 55  1  0
 50 56  1  0
 50 57  1  0
 51 58  1  0
 51 59  1  0
 51 60  1  0
  1 48  1  0
M  END
>  <attachment_point>  (1) 
30

>  <energies>  (1) 
[-1595553.157447203, -1595549.4396805365, -1595547.613735786, -1595547.6145153828, -1595547.6149855566, -1595547.6139934256, -1595545.583815899]

>  <index>  (1) 
2

>  <Smiles>  (1) 
[H]/C(=C(/[H])S(=O)(=O)N([H])[C@]1([H])C(=O)N(c2nc([H])c(-c3c([H])c([H])c([H])c([H])c3C(C([H])([H])[H])(C([H])([H])[H])C([H])([H])[H])c([H])c2[H])C([H])([H])C1([H])[H])c1sc(Cl)c([H])c1[H]

>  <score>  (1) 
<NA>

>  <h>  (1) 
30

>  <Training>  (1) 
False

>  <Success>  (1) 
nan

>  <enamine_searched>  (1) 
False

>  <enamine_id>  (1) 
nan

$$$$
