9    
Iteration 0 Energy -153.94931965
C        1.1185258078   -0.2927011871   -0.0522845182
O        0.2310036752    0.7118530206   -0.3827791290
C       -1.0916597348    0.3741727919   -0.1409036455
H        1.0782099869   -0.5794600211    1.0193053559
H        2.1364452009    0.0719452402   -0.3173646764
H        0.9734447103   -1.2195450811   -0.6608319183
H       -1.2883214071    0.1393371011    0.9243771345
H       -1.4565820857   -0.4701558329   -0.7337466165
H       -1.7010661429    1.2645539631   -0.4518806926
9    
Iteration 1 Energy -153.95207850
C        1.1328727789   -0.2985569068   -0.0668642800
O        0.2246639320    0.6958132622   -0.3818184048
C       -1.1053202927    0.3924559194   -0.1467221532
H        1.0794098520   -0.5613394428    0.9932425328
H        2.1379198603    0.0504667716   -0.2895085592
H        0.9517198938   -1.2087962845   -0.6498640931
H       -1.2776927404    0.1585435293    0.9081562311
H       -1.4200520397   -0.4713174463   -0.7437113637
H       -1.7235212335    1.2427305926   -0.4190186161
9    
Iteration 2 Energy -153.95228339
C        1.1275869663   -0.3012095877   -0.0658858983
O        0.2256655908    0.6980059258   -0.3827399820
C       -1.1009709985    0.3843873838   -0.1461984929
H        1.0865713276   -0.5663892057    0.9964321903
H        2.1254629977    0.0658407795   -0.2909136948
H        0.9514802207   -1.2106839216   -0.6514920681
H       -1.2847158759    0.1589860274    0.9102491369
H       -1.4298671703   -0.4752871888   -0.7425025358
H       -1.7012130479    1.2463497821   -0.4230573615
9    
Iteration 3 Energy -153.95229765
C        1.1291505952   -0.3009095859   -0.0660946815
O        0.2258645626    0.6989567666   -0.3819617542
C       -1.1018059354    0.3858086357   -0.1464971555
H        1.0862100005   -0.5671760846    0.9968107556
H        2.1300795454    0.0633720777   -0.2908123658
H        0.9506165634   -1.2103109868   -0.6523416802
H       -1.2845189376    0.1587421967    0.9105421851
H       -1.4283763768   -0.4754490345   -0.7411203616
H       -1.7072200067    1.2469660097   -0.4246336481
9    
Iteration 4 Energy -153.95229850
C        1.1289908790   -0.3010434909   -0.0662652755
O        0.2259065137    0.6994113763   -0.3812355490
C       -1.1016480582    0.3859410038   -0.1462784221
H        1.0860187196   -0.5673592657    0.9963879946
H        2.1295418744    0.0631776793   -0.2907758821
H        0.9498850924   -1.2098714352   -0.6527643144
H       -1.2847608784    0.1594604159    0.9106682351
H       -1.4269515341   -0.4758618170   -0.7407769230
H       -1.7069825976    1.2461455283   -0.4250685698
