14   
Iteration 0 Energy -210.97210402
C        0.1211646423   -1.0586519041    0.3565077348
C        1.1040556898   -0.1080606853   -0.3463484478
C        0.4029914600    1.2151656899   -0.0168202575
N       -1.0078561307    0.9181419188    0.0188607331
C       -1.1652235058   -0.4872829073   -0.2608547893
H        0.2851672012   -2.0992841970    0.0816399149
H        0.1433609593   -0.9135573232    1.4447434125
H        2.1057393228   -0.1685780896    0.0583666271
H        0.9957321516   -0.3104986709   -1.4174945592
H        0.7789685610    1.5169266978    1.0028477965
H        0.6769919743    2.0148650222   -0.6997079274
H       -1.3534129611    1.0830387977    1.0049639232
H       -1.0273169560   -0.6614266817   -1.3683026478
H       -2.0603624140   -0.9407976621    0.1415984870
14   
Iteration 1 Energy -210.98811920
C        0.1444141771   -1.1305961313    0.3024138895
C        1.1352322223   -0.1142002586   -0.2998321013
C        0.4103466114    1.2290397496   -0.0110182900
N       -1.0284357913    0.9387811598    0.0137626243
C       -1.1664779035   -0.4984223936   -0.2171353483
H        0.3116163087   -2.1722163985    0.0163723210
H        0.1694675096   -1.0436462296    1.3907953018
H        2.1457289977   -0.1504701745    0.1032426982
H        1.1473594847   -0.2854126973   -1.3749007193
H        0.7245104308    1.5978154078    0.9696259672
H        0.6715600111    2.0135359440   -0.7246226761
H       -1.3780382423    1.1551927048    0.9219965246
H       -1.1961089720   -0.6525164830   -1.2947076848
H       -2.0911748496   -0.8868841943    0.2040074932
14   
Iteration 2 Energy -210.99075201
C        0.1358422101   -1.1216295489    0.2841293708
C        1.1322828837   -0.1048006293   -0.2843826374
C        0.4252213318    1.2339197601   -0.0031459124
N       -1.0166481425    0.9291593382    0.0144523276
C       -1.1714756233   -0.5079400591   -0.2156906152
H        0.3023178426   -2.1545019263   -0.0222808572
H        0.1593953023   -1.0817179025    1.3779520840
H        2.1393661740   -0.1476097351    0.1304270104
H        1.2103439392   -0.2556245691   -1.3632846330
H        0.7390784637    1.6276484911    0.9648192391
H        0.6773518678    1.9941330653   -0.7458668474
H       -1.3872918126    1.1704026727    0.9079840313
H       -1.2618353299   -0.6900387736   -1.2874307035
H       -2.0839491122   -0.8914001782    0.2423181428
14   
Iteration 3 Energy -210.99185092
C        0.1374330002   -1.1221329099    0.2624748127
C        1.1340260762   -0.1019352068   -0.2677105089
C        0.4279572306    1.2357224251   -0.0032030651
N       -1.0114125850    0.9319712088    0.0078402787
C       -1.1704408946   -0.5031781494   -0.2078238979
H        0.3087362182   -2.1430375785   -0.0812289644
H        0.1651947705   -1.1377125186    1.3579789892
H        2.1292564546   -0.1626995737    0.1763759571
H        1.2705924982   -0.2445912192   -1.3444061556
H        0.7352047258    1.6581583687    0.9574837653
H        0.6687679475    1.9734277009   -0.7709724231
H       -1.4167203327    1.2000801346    0.8851444596
H       -1.3197166335   -0.7052140757   -1.2747633352
H       -2.0588784813   -0.8788586010    0.3028100875
14   
Iteration 4 Energy -210.99228477
C        0.1371350182   -1.1274877281    0.2486353825
C        1.1407831827   -0.0974509387   -0.2571702434
C        0.4294085995    1.2409069859   -0.0080228196
N       -1.0058107545    0.9306705270    0.0022094707
C       -1.1793277647   -0.5035294158   -0.1995636002
H        0.3083515220   -2.1375807315   -0.1277654010
H        0.1678548467   -1.1787749367    1.3425241677
H        2.1225508901   -0.1603272931    0.2162484698
H        1.3072270939   -0.2379326261   -1.3295714077
H        0.7370280167    1.6768705382    0.9470898378
H        0.6689287138    1.9698890617   -0.7844371656
H       -1.4268343450    1.2180213344    0.8640888267
H       -1.3574661821   -0.7196796683   -1.2592162266
H       -2.0498288427   -0.8735951036    0.3449507092
14   
Iteration 5 Energy -210.99250447
C        0.1404866241   -1.1355476162    0.2380650308
C        1.1486687816   -0.0966862080   -0.2504022129
C        0.4259584324    1.2413308266   -0.0128395451
N       -1.0045259434    0.9312371617   -0.0039636039
C       -1.1843162394   -0.5027048871   -0.1896393032
H        0.3074145839   -2.1329512303   -0.1722755256
H        0.1795057675   -1.2171335151    1.3290415179
H        2.1148523476   -0.1531862324    0.2532128350
H        1.3365703932   -0.2382736627   -1.3180976283
H        0.7320135042    1.6857837993    0.9385381367
H        0.6689686236    1.9662911919   -0.7923957889
H       -1.4389496577    1.2433410302    0.8410847078
H       -1.3860143013   -0.7278811269   -1.2419097653
H       -2.0406329216   -0.8636195257    0.3815811450
14   
Iteration 6 Energy -210.99252888
C        0.1410593313   -1.1381514336    0.2363051745
C        1.1495779394   -0.0961634257   -0.2496999992
C        0.4256605015    1.2421991630   -0.0143407551
N       -1.0035197529    0.9309027798   -0.0074518366
C       -1.1851530862   -0.5040058270   -0.1850464280
H        0.3047502837   -2.1319921227   -0.1838648748
H        0.1837426266   -1.2267625462    1.3260947895
H        2.1116156940   -0.1487559564    0.2616366718
H        1.3411480254   -0.2372233867   -1.3162352765
H        0.7318466084    1.6851589630    0.9379688191
H        0.6724342434    1.9684472357   -0.7921221364
H       -1.4423141723    1.2514096487    0.8318308857
H       -1.3911605064   -0.7324715606   -1.2355382525
H       -2.0396877411   -0.8625915259    0.3904632184
14   
Iteration 7 Energy -210.99253774
C        0.1417503778   -1.1381016329    0.2362252231
C        1.1501589279   -0.0962485257   -0.2506010025
C        0.4255936475    1.2415976810   -0.0138123480
N       -1.0036072593    0.9310191963   -0.0103837498
C       -1.1854476882   -0.5044971564   -0.1830545175
H        0.3036489779   -2.1308245956   -0.1870051340
H        0.1877444176   -1.2285508482    1.3256466056
H        2.1116069959   -0.1475093216    0.2619384802
H        1.3420718450   -0.2375389135   -1.3169358178
H        0.7306145503    1.6812327959    0.9404628675
H        0.6745576392    1.9702121361   -0.7887470321
H       -1.4456947037    1.2565206732    0.8250463991
H       -1.3932851696   -0.7356627174   -1.2326502401
H       -2.0397125637   -0.8616487658    0.3938702663
14   
Iteration 8 Energy -210.99255603
C        0.1431979560   -1.1379471473    0.2369587998
C        1.1498840070   -0.0961313874   -0.2537251687
C        0.4262915048    1.2407156423   -0.0113348111
N       -1.0029887710    0.9313323117   -0.0185242587
C       -1.1851790479   -0.5058749715   -0.1796351914
H        0.3021255390   -2.1297987040   -0.1892321003
H        0.1952092363   -1.2299252079    1.3259004419
H        2.1120908699   -0.1460006550    0.2574862470
H        1.3396771414   -0.2367976905   -1.3204460569
H        0.7276325684    1.6700029350    0.9489672566
H        0.6807407392    1.9763779441   -0.7778008701
H       -1.4536879124    1.2680985943    0.8077058680
H       -1.3963978546   -0.7443048882   -1.2270645475
H       -2.0385959814   -0.8597467701    0.4007443914
14   
Iteration 9 Energy -210.99259980
C        0.1470738382   -1.1364591393    0.2388481472
C        1.1492285678   -0.0954114301   -0.2620265246
C        0.4288515443    1.2379269647   -0.0031718668
N       -1.0005517371    0.9313481757   -0.0402507337
C       -1.1846859788   -0.5092297706   -0.1727386027
H        0.3011501833   -2.1278878177   -0.1898080070
H        0.2112906073   -1.2285762337    1.3269755140
H        2.1159448365   -0.1445647842    0.2408558117
H        1.3295107426   -0.2330943894   -1.3307261183
H        0.7192070451    1.6392553499    0.9730502275
H        0.6978124865    1.9919227080   -0.7464935736
H       -1.4749880675    1.2950713766    0.7607485112
H       -1.4054668495   -0.7660721612   -1.2140408333
H       -2.0343772238   -0.8542288432    0.4187780484
14   
Iteration 10 Energy -210.99269701
C        0.1604231638   -1.1318721946    0.2430929557
C        1.1467926363   -0.0913483831   -0.2878241177
C        0.4363889075    1.2275253322    0.0276435539
N       -0.9868693271    0.9289682067   -0.1126197483
C       -1.1824958281   -0.5181539836   -0.1507784830
H        0.3015120909   -2.1230826808   -0.1898407948
H        0.2601431785   -1.2226742350    1.3282440509
H        2.1297501774   -0.1415465538    0.1829144425
H        1.2911982604   -0.2147537405   -1.3636818333
H        0.6850377690    1.5358220548    1.0500647075
H        0.7495211891    2.0380720967   -0.6342771144
H       -1.5363636656    1.3787986397    0.5902115687
H       -1.4404956613   -0.8356939230   -1.1670109092
H       -2.0145428960   -0.8300606304    0.4838617214
14   
Iteration 11 Energy -210.99281679
C        0.1643372438   -1.1318032454    0.2397266157
C        1.1487746424   -0.0893816685   -0.2907875478
C        0.4382582158    1.2244452876    0.0365746005
N       -0.9803703032    0.9269225409   -0.1330038419
C       -1.1832239717   -0.5199077211   -0.1445257717
H        0.3044408110   -2.1218158678   -0.1961442407
H        0.2693301995   -1.2264612691    1.3239238818
H        2.1347362368   -0.1435091006    0.1734657760
H        1.2861945338   -0.2048213771   -1.3685290316
H        0.6734409028    1.5131471274    1.0685716392
H        0.7599754543    2.0465987654   -0.6065244389
H       -1.5517597668    1.4000380405    0.5366291180
H       -1.4607959225   -0.8528100925   -1.1505429544
H       -2.0033382813   -0.8206414145    0.5111661960
14   
Iteration 12 Energy -210.98977345
C        0.2035165326   -1.1409171979    0.1741208733
C        1.1643428466   -0.0514317765   -0.3098410865
C        0.4296258101    1.1820544130    0.1627546010
N       -0.8691585621    0.8712616776   -0.3600239168
C       -1.1929047313   -0.5209546321   -0.0471244052
H        0.3338677010   -2.1019234837   -0.3244621959
H        0.3654727408   -1.3189597577    1.2394952313
H        2.1797739331   -0.1535976616    0.0760825629
H        1.2174841736   -0.0441498834   -1.4021782854
H        0.4871830790    1.2605881997    1.2634354918
H        0.8173153912    2.1157120265   -0.2495224842
H       -1.5936568685    1.5449309960   -0.2173604497
H       -1.7424591549   -1.0010917898   -0.8618067136
H       -1.8004028966   -0.6415211250    0.8564307768
14   
Iteration 13 Energy -210.99332978
C        0.1831290626   -1.1422003652    0.1953086661
C        1.1668761509   -0.0742641988   -0.2838055829
C        0.4431514636    1.2115015638    0.0898575017
N       -0.9310208641    0.9050118535   -0.2392185221
C       -1.1932792370   -0.5269439899   -0.1075221158
H        0.3334205921   -2.1175792776   -0.2693454369
H        0.2929958112   -1.2820496893    1.2737654384
H        2.1604238449   -0.1672253057    0.1572857652
H        1.2779023568   -0.1252582494   -1.3704053948
H        0.5979877439    1.4342274646    1.1569634641
H        0.7971909388    2.0750522641   -0.4768980039
H       -1.6086027023    1.4902482424    0.2060656746
H       -1.6207983996   -0.9311014425   -1.0297546921
H       -1.8993767671   -0.7494188646    0.6977032384
14   
Iteration 14 Energy -210.99341902
C        0.1831445282   -1.1421413890    0.2032753385
C        1.1637916122   -0.0765934655   -0.2893496313
C        0.4419456151    1.2121007038    0.0851587186
N       -0.9386871652    0.9068871365   -0.2365108596
C       -1.1896803993   -0.5250296787   -0.1050410624
H        0.3250043094   -2.1174474616   -0.2639834279
H        0.3040787866   -1.2791315012    1.2809637519
H        2.1565266121   -0.1595512037    0.1550248246
H        1.2771452799   -0.1349774058   -1.3747354399
H        0.6014280475    1.4280814339    1.1522287559
H        0.8003044727    2.0776866344   -0.4762860768
H       -1.6095740999    1.4888075715    0.2225574107
H       -1.6011796537   -0.9266287853   -1.0357078384
H       -1.9142479509   -0.7520625840    0.6824055363
14   
Iteration 15 Energy -210.99322078
C        0.1750575704   -1.1458710999    0.2016109940
C        1.1666052337   -0.0823360302   -0.2731543968
C        0.4411039674    1.2227242984    0.0572696348
N       -0.9584244384    0.9139304015   -0.1883692799
C       -1.1912455057   -0.5228384159   -0.1203127662
H        0.3233859105   -2.1192795288   -0.2678161785
H        0.2766988168   -1.2854886655    1.2811797478
H        2.1455401471   -0.1613407205    0.2012362428
H        1.3118607633   -0.1559299884   -1.3533921461
H        0.6336799293    1.5038808915    1.1016706251
H        0.7783052272    2.0535530772   -0.5664618006
H       -1.5933985918    1.4484916737    0.3693186781
H       -1.5714246792   -0.8878474215   -1.0786686430
H       -1.9377443559   -0.7816484664    0.6358892886
14   
Iteration 16 Energy -210.99337572
C        0.1792460434   -1.1454799038    0.1990397048
C        1.1670698190   -0.0795384476   -0.2784889905
C        0.4415447015    1.2182810417    0.0699657031
N       -0.9488143915    0.9098863614   -0.2135690356
C       -1.1913456835   -0.5239246517   -0.1108621252
H        0.3243437491   -2.1173035247   -0.2744987333
H        0.2901323990   -1.2894817521    1.2769591562
H        2.1505404625   -0.1613930269    0.1860182939
H        1.3012859223   -0.1440006758   -1.3608087574
H        0.6162500010    1.4713441619    1.1254572614
H        0.7893063729    2.0649474061   -0.5259737728
H       -1.6039760640    1.4699451278    0.2932614588
H       -1.5932850587   -0.9078062201   -1.0528503172
H       -1.9222982782   -0.7654758910    0.6663501539
14   
Iteration 17 Energy -210.99343609
C        0.1808417376   -1.1442972948    0.1988497837
C        1.1660329214   -0.0776438939   -0.2827633179
C        0.4417623466    1.2155745883    0.0771521510
N       -0.9430881896    0.9084151399   -0.2268918573
C       -1.1917327510   -0.5246276391   -0.1062558498
H        0.3234447732   -2.1155588560   -0.2763668957
H        0.2982152578   -1.2890102168    1.2758074954
H        2.1520366941   -0.1590612538    0.1764670157
H        1.2942576061   -0.1394287579   -1.3660806051
H        0.6070584910    1.4526338520    1.1383166334
H        0.7950023780    2.0707167255   -0.5030656690
H       -1.6050659243    1.4807948204    0.2559411914
H       -1.6015617101   -0.9210352917   -1.0399123693
H       -1.9172036362   -0.7574719168    0.6788022934
14   
Iteration 18 Energy -210.99346906
C        0.1836698717   -1.1453992338    0.1939390172
C        1.1681291343   -0.0755821850   -0.2832685888
C        0.4409446403    1.2128314059    0.0839213432
N       -0.9368663491    0.9047094990   -0.2454196910
C       -1.1924278787   -0.5243728583   -0.0976977276
H        0.3233801738   -2.1128062261   -0.2896498343
H        0.3070315643   -1.2994344829    1.2688534874
H        2.1542967481   -0.1590052944    0.1752331346
H        1.2950951296   -0.1295281432   -1.3670731980
H        0.5929638998    1.4358295306    1.1505331374
H        0.8000834843    2.0759550466   -0.4806619102
H       -1.6103654416    1.4918392342    0.2028723057
H       -1.6230558045   -0.9318252865   -1.0169383705
H       -1.9028791774   -0.7432110006    0.7053568951
14   
Iteration 19 Energy -210.99349316
C        0.1870048707   -1.1488640362    0.1836397731
C        1.1721180339   -0.0726913027   -0.2804130530
C        0.4385483171    1.2106209048    0.0904109292
N       -0.9287796188    0.8990943902   -0.2707608837
C       -1.1937635592   -0.5229096705   -0.0835033407
H        0.3218462111   -2.1069131231   -0.3193523252
H        0.3189463464   -1.3247166959    1.2539038470
H        2.1549715159   -0.1581985070    0.1847582844
H        1.3056644877   -0.1169813892   -1.3636284665
H        0.5709022689    1.4205041785    1.1627972976
H        0.8037486802    2.0819706841   -0.4571841497
H       -1.6148838291    1.5052406237    0.1310215299
H       -1.6572807089   -0.9460810055   -0.9790552415
H       -1.8790430212   -0.7200750461    0.7473657990
14   
Iteration 20 Energy -210.99351117
C        0.1879802026   -1.1509105847    0.1782799525
C        1.1745361673   -0.0716730441   -0.2770803316
C        0.4369353698    1.2104674076    0.0899580035
N       -0.9274469410    0.8971475973   -0.2803179704
C       -1.1945539603   -0.5216877445   -0.0771292107
H        0.3203463221   -2.1027918090   -0.3368461941
H        0.3232143417   -1.3405191273    1.2456794626
H        2.1538196989   -0.1567129467    0.1956621262
H        1.3165988027   -0.1138465694   -1.3591721434
H        0.5621016741    1.4194249493    1.1635082842
H        0.8038042576    2.0828161111   -0.4547704199
H       -1.6161667922    1.5079953157    0.1099517334
H       -1.6720529849   -0.9500968859   -0.9626099506
H       -1.8691161637   -0.7096126642    0.7648866583
14   
Iteration 21 Energy -210.99353970
C        0.1897749467   -1.1557313901    0.1662664052
C        1.1794055106   -0.0693242601   -0.2687637023
C        0.4329125349    1.2105161632    0.0878706972
N       -0.9244753063    0.8929847525   -0.3028667611
C       -1.1957969874   -0.5187902491   -0.0632174070
H        0.3167501550   -2.0926347989   -0.3767697388
H        0.3313098589   -1.3778420434    1.2263027800
H        2.1503641970   -0.1529338606    0.2211646821
H        1.3418054756   -0.1081515229   -1.3479329601
H        0.5411339246    1.4192129617    1.1635484373
H        0.8034232645    2.0843851597   -0.4515461041
H       -1.6170467062    1.5119749252    0.0683898399
H       -1.7035641099   -0.9589336319   -0.9252905206
H       -1.8459967633   -0.6847322000    0.8028443525
14   
Iteration 22 Energy -210.99354974
C        0.1915186499   -1.1593291412    0.1558302824
C        1.1832616562   -0.0671098409   -0.2622860538
C        0.4293095909    1.2095761108    0.0884993748
N       -0.9200156675    0.8880029631   -0.3250801186
C       -1.1964537856   -0.5162409292   -0.0507010296
H        0.3137772597   -2.0833847077   -0.4097583654
H        0.3385312070   -1.4080766067    1.2089529516
H        2.1484103755   -0.1508279474    0.2390321310
H        1.3593407126   -0.1006297689   -1.3393205675
H        0.5202321373    1.4144592784    1.1667725107
H        0.8046000118    2.0866187715   -0.4422085929
H       -1.6180116921    1.5152573485    0.0221287031
H       -1.7321901719   -0.9677758298   -0.8891997918
H       -1.8223102890   -0.6605396954    0.8373385661
14   
Iteration 23 Energy -210.99355546
C        0.1925045281   -1.1632192745    0.1468033090
C        1.1862386680   -0.0655616496   -0.2553329185
C        0.4260334734    1.2096613059    0.0870789086
N       -0.9173474532    0.8840266658   -0.3418717690
C       -1.1962851981   -0.5140605520   -0.0407860209
H        0.3109045723   -2.0747633151   -0.4395210553
H        0.3426876780   -1.4363322738    1.1932590323
H        2.1454726419   -0.1483684090    0.2573642524
H        1.3757302220   -0.0958359428   -1.3300419960
H        0.5030024292    1.4148286317    1.1664482795
H        0.8052056446    2.0875345200   -0.4393729651
H       -1.6183019934    1.5162171239   -0.0090928918
H       -1.7542635211   -0.9744090191   -0.8594002734
H       -1.8015816971   -0.6397178062    0.8644661082
14   
Iteration 24 Energy -210.99355808
C        0.1936800751   -1.1669921640    0.1369445045
C        1.1895190536   -0.0639488749   -0.2482063027
C        0.4223325734    1.2090649478    0.0869367364
N       -0.9135752272    0.8785070405   -0.3603324552
C       -1.1959320800   -0.5113722910   -0.0290067536
H        0.3072387777   -2.0644002968   -0.4716313469
H        0.3480474382   -1.4661519930    1.1754145406
H        2.1425581348   -0.1460992687    0.2759540555
H        1.3922754104   -0.0899796670   -1.3204459193
H        0.4839131516    1.4131640408    1.1676972443
H        0.8055709617    2.0886213178   -0.4335410491
H       -1.6190675548    1.5172148570   -0.0497287421
H       -1.7787499670   -0.9807208792   -0.8244848074
H       -1.7778107527   -0.6169067642    0.8944302951
14   
Iteration 25 Energy -210.99356223
C        0.1945585364   -1.1721440363    0.1238051069
C        1.1936365062   -0.0621873199   -0.2375098074
C        0.4173918864    1.2089252525    0.0848063702
N       -0.9099854530    0.8712481446   -0.3816202639
C       -1.1950141260   -0.5078780729   -0.0139208989
H        0.3014711022   -2.0489501068   -0.5151422219
H        0.3533111891   -1.5069251167    1.1504027380
H        2.1371001690   -0.1427583777    0.3038389243
H        1.4163680899   -0.0840491408   -1.3056546346
H        0.4607837289    1.4151578849    1.1661956707
H        0.8052728496    2.0888492656   -0.4314048553
H       -1.6201502237    1.5165262436   -0.0955006832
H       -1.8083166928   -0.9875504092   -0.7793497319
H       -1.7464275675   -0.5882642058    0.9310542871
14   
Iteration 26 Energy -210.99340226
C        0.1949756391   -1.1934379401    0.0627729645
C        1.2081246673   -0.0572057946   -0.1862080383
C        0.3918536584    1.2064657022    0.0731751538
N       -0.8939156426    0.8291799256   -0.4730515799
C       -1.1838578790   -0.4895301066    0.0559618226
H        0.2668031293   -1.9633953142   -0.7052879036
H        0.3693447527   -1.6872907035    1.0190802946
H        2.1014631523   -0.1323768732    0.4347036483
H        1.5262488656   -0.0613589670   -1.2291707147
H        0.3549507963    1.4262768024    1.1526706997
H        0.7967166188    2.0874081030   -0.4271762136
H       -1.6220143920    1.4945403226   -0.2947131378
H       -1.9226667674   -1.0031117267   -0.5603537740
H       -1.5880266039   -0.4561634246    1.0775967785
14   
Iteration 27 Energy -210.99356818
C        0.1951510557   -1.1835521608    0.0934031143
C        1.2017692733   -0.0591832517   -0.2114555407
C        0.4054941462    1.2087514568    0.0778766491
N       -0.9031014950    0.8526807947   -0.4261401178
C       -1.1909322541   -0.4996024631    0.0205097585
H        0.2853987478   -2.0083300651   -0.6135496675
H        0.3621468085   -1.6000096521    1.0877280991
H        2.1204548662   -0.1358585447    0.3712658365
H        1.4734069583   -0.0732197331   -1.2678752190
H        0.4100807029    1.4238984550    1.1586281287
H        0.8023710528    2.0877256220   -0.4326764078
H       -1.6222342389    1.5094281817   -0.1914477567
H       -1.8687959540   -0.9986096430   -0.6739959621
H       -1.6712096751   -0.5241189912    1.0077290854
14   
Iteration 28 Energy -210.99358698
C        0.1940276694   -1.1872681510    0.0846631106
C        1.2038610840   -0.0591121914   -0.2001195805
C        0.4031361775    1.2108114050    0.0702729229
N       -0.9063335338    0.8498315814   -0.4295897799
C       -1.1894064222   -0.4987708535    0.0282203129
H        0.2800059281   -1.9917649930   -0.6457593916
H        0.3603087197   -1.6305343833    1.0673301298
H        2.1115378852   -0.1314075498    0.3999553668
H        1.4956799366   -0.0760406239   -1.2509951761
H        0.4033937702    1.4397666912    1.1480137830
H        0.8026281884    2.0828779819   -0.4499736690
H       -1.6257707350    1.5062175475   -0.1951897457
H       -1.8800836423   -1.0016688304   -0.6507269240
H       -1.6529850311   -0.5129376254    1.0238986410
14   
Iteration 29 Energy -210.99357483
C        0.1912475146   -1.1990023400    0.0476556381
C        1.2102432300   -0.0578980734   -0.1654203855
C        0.3895326282    1.2114655072    0.0558764846
N       -0.9030007557    0.8260561440   -0.4704329260
C       -1.1809407294   -0.4906637994    0.0676272552
H        0.2547022667   -1.9302517926   -0.7580482064
H        0.3631419622   -1.7372199994    0.9801579084
H        2.0794661099   -0.1248195580    0.4894783664
H        1.5692651519   -0.0707341465   -1.1948601492
H        0.3535202840    1.4627480106    1.1279409177
H        0.7969469499    2.0762194352   -0.4700062566
H       -1.6298064492    1.4898537858   -0.2819918396
H       -1.9345504267   -1.0088792659   -0.5269699016
H       -1.5597677417   -0.4468739025    1.0989930946
14   
Iteration 30 Energy -210.99362410
C        0.1908186056   -1.1931251017    0.0642778109
C        1.2072470681   -0.0577082801   -0.1817190029
C        0.3970690130    1.2135852362    0.0597513955
N       -0.9053711828    0.8387089639   -0.4445831373
C       -1.1866511103   -0.4973442989    0.0489995427
H        0.2623801709   -1.9603312132   -0.7067227672
H        0.3621086276   -1.6873626126    1.0214625416
H        2.0903236915   -0.1274944682    0.4543933045
H        1.5437481364   -0.0745206518   -1.2190376539
H        0.3865134286    1.4599484075    1.1333053602
H        0.7951779555    2.0798416409   -0.4709419560
H       -1.6266922660    1.5008379888   -0.2308441106
H       -1.9078111877   -1.0072084111   -0.5919835209
H       -1.6088609557   -0.4878271942    1.0636421932
14   
Iteration 31 Energy -210.99364700
C        0.1892997917   -1.1958547562    0.0509608701
C        1.2098118180   -0.0577790894   -0.1698953211
C        0.3928159476    1.2140710215    0.0522481474
N       -0.9074276558    0.8319330218   -0.4538507846
C       -1.1849272897   -0.4953501862    0.0620118501
H        0.2522016964   -1.9381783565   -0.7447426773
H        0.3645836179   -1.7216076391    0.9903704337
H        2.0756293200   -0.1251786070    0.4897432379
H        1.5759207679   -0.0760641771   -1.1970076335
H        0.3760231343    1.4725825890    1.1229282802
H        0.7914724241    2.0753134200   -0.4860255375
H       -1.6298930202    1.4956516306   -0.2485078461
H       -1.9240734746   -1.0083668873   -0.5552644425
H       -1.5814370830   -0.4711719788    1.0870314232
14   
Iteration 32 Energy -210.99366215
C        0.1840972620   -1.2042945011    0.0109309597
C        1.2143941380   -0.0582885786   -0.1338552897
C        0.3812323559    1.2158677080    0.0298820073
N       -0.9112638111    0.8093930342   -0.4789617547
C       -1.1769798027   -0.4904567485    0.1016938957
H        0.2217104816   -1.8671343034   -0.8534937566
H        0.3676557072   -1.8212174208    0.8912099130
H        2.0255307693   -0.1199520892    0.5924059478
H        1.6651908673   -0.0791167123   -1.1262468480
H        0.3453404635    1.5107490400    1.0904921289
H        0.7822586885    2.0613328256   -0.5309208980
H       -1.6380619998    1.4776545142   -0.3039249063
H       -1.9660203410   -1.0117598983   -0.4419151151
H       -1.4950847839   -0.4227768646    1.1527037158
14   
Iteration 33 Energy -210.99367987
C        0.1857707905   -1.2015283744    0.0243365546
C        1.2130182769   -0.0581574106   -0.1456255855
C        0.3859754530    1.2166659642    0.0346962981
N       -0.9125025962    0.8191256839   -0.4645309634
C       -1.1813232084   -0.4934135648    0.0875603028
H        0.2319356749   -1.8916205858   -0.8180945191
H        0.3678410249   -1.7879165931    0.9256909576
H        2.0396403776   -0.1207147913    0.5629353237
H        1.6403483823   -0.0805713904   -1.1484548122
H        0.3625160718    1.5045332164    1.0975619428
H        0.7843453813    2.0643541737   -0.5247822912
H       -1.6366367913    1.4855235047   -0.2736522715
H       -1.9510151093   -1.0105275165   -0.4871628053
H       -1.5299137332   -0.4457523107    1.1295218686
14   
Iteration 34 Energy -210.99368949
C        0.1840414590   -1.2033938362    0.0131928949
C        1.2140887587   -0.0585870048   -0.1345892087
C        0.3832653386    1.2177165002    0.0271349192
N       -0.9148182501    0.8138551973   -0.4688376461
C       -1.1789041812   -0.4929398613    0.0978355919
H        0.2223503680   -1.8697979145   -0.8485013282
H        0.3678375390   -1.8149188298    0.8972812382
H        2.0236142267   -0.1193638413    0.5936021769
H        1.6663936995   -0.0827878237   -1.1262688886
H        0.3571354155    1.5189255131    1.0860590916
H        0.7818396561    2.0589058024   -0.5418397018
H       -1.6396324065    1.4810734764   -0.2833589235
H       -1.9608247822   -1.0121104433   -0.4581518169
H       -1.5063868463   -0.4365769292    1.1464416011
14   
Iteration 35 Energy -210.99368904
C        0.1791032858   -1.2081181200   -0.0195192648
C        1.2153429260   -0.0604289472   -0.1021512862
C        0.3763144857    1.2202743026    0.0042783493
N       -0.9216047692    0.7979363854   -0.4788518977
C       -1.1713910793   -0.4924853831    0.1275182095
H        0.1969268728   -1.8023998577   -0.9331428121
H        0.3679747341   -1.8896218637    0.8105183002
H        1.9715813986   -0.1160900223    0.6815319734
H        1.7394835698   -0.0905918907   -1.0574240180
H        0.3441065101    1.5628865795    1.0499087277
H        0.7761810755    2.0398014454   -0.5944622525
H       -1.6481899662    1.4667168532   -0.3053609061
H       -1.9857887501   -1.0163258861   -0.3747075878
H       -1.4400402990   -0.4115535898    1.1918644649
14   
Iteration 36 Energy -210.99369939
C        0.1814606452   -1.2058175057   -0.0032742031
C        1.2148783501   -0.0595458107   -0.1176440384
C        0.3801780473    1.2198906643    0.0143375367
N       -0.9192807835    0.8069468301   -0.4711993964
C       -1.1757650650   -0.4935207586    0.1121608463
H        0.2092914829   -1.8358936672   -0.8923238414
H        0.3680165189   -1.8529885244    0.8544121550
H        1.9964409720   -0.1175568906    0.6406719064
H        1.7054718642   -0.0875057848   -1.0907661384
H        0.3537367098    1.5450743470    1.0658267728
H        0.7784549977    2.0484256821   -0.5730515232
H       -1.6444117887    1.4747403543   -0.2887872487
H       -1.9732972360   -1.0146256163   -0.4193086880
H       -1.4751747203   -0.4276233141    1.1689458605
14   
Iteration 37 Energy -210.99370118
C        0.1805749880   -1.2066115112   -0.0091140174
C        1.2150600016   -0.0599597697   -0.1117150317
C        0.3790918526    1.2205278108    0.0097582118
N       -0.9209574991    0.8045479476   -0.4719673476
C       -1.1745211459   -0.4936640859    0.1171780662
H        0.2046871962   -1.8237276842   -0.9073249178
H        0.3682357572   -1.8660464139    0.8389195331
H        1.9863633468   -0.1169466870    0.6570944932
H        1.7191542975   -0.0892966143   -1.0778380251
H        0.3526989846    1.5541413629    1.0585026932
H        0.7772867206    2.0444601454   -0.5841163207
H       -1.6461350249    1.4725075242   -0.2902296502
H       -1.9772868646   -1.0154113667   -0.4057269550
H       -1.4642526159   -0.4245206526    1.1765792682
14   
Iteration 38 Energy -210.99370221
C        0.1791381645   -1.2074891570   -0.0185672776
C        1.2152234078   -0.0606258791   -0.1022471130
C        0.3775859671    1.2215509381    0.0023391037
N       -0.9236992067    0.8007549799   -0.4725686235
C       -1.1727371492   -0.4941697285    0.1250981433
H        0.1977039928   -1.8039901779   -0.9307672759
H        0.3684864406   -1.8859302698    0.8139330670
H        1.9696108206   -0.1164232915    0.6832373227
H        1.7409353806   -0.0921637642   -1.0566618776
H        0.3518276431    1.5691331753    1.0463843718
H        0.7755041097    2.0376799122   -0.6023942665
H       -1.6489611007    1.4688985267   -0.2917779981
H       -1.9835393727   -1.0166791562   -0.3844872998
H       -1.4470791027   -0.4205461028    1.1884797234
14   
Iteration 39 Energy -210.99370238
C        0.1792049204   -1.2075743018   -0.0182762862
C        1.2151637639   -0.0606480745   -0.1024458162
C        0.3776578239    1.2216502600    0.0022443343
N       -0.9239123219    0.8011331202   -0.4719960681
C       -1.1727691594   -0.4942135350    0.1247397659
H        0.1977938105   -1.8046115829   -0.9301218468
H        0.3687104512   -1.8854602410    0.8146557196
H        1.9696023073   -0.1162771256    0.6830079956
H        1.7407464778   -0.0923932054   -1.0569285655
H        0.3525729819    1.5693974278    1.0462523763
H        0.7753192149    2.0376202185   -0.6028689912
H       -1.6489646478    1.4692540509   -0.2902839784
H       -1.9830202626   -1.0165701572   -0.3858834393
H       -1.4481053653   -0.4213068489    1.1879048001
